101380553
  -OEChem-05122608452D

 73 76  0     0  0  0  0  0  0999 V2000
    6.4163   -1.5180    0.0000 O   0  0  0  0  0  0  0  0  0  0  0  0
    6.4163    0.4821    0.0000 O   0  0  0  0  0  0  0  0  0  0  0  0
    7.6483   -2.3840    0.0000 O   0  0  0  0  0  0  0  0  0  0  0  0
    5.5502    2.9821    0.0000 O   0  0  0  0  0  0  0  0  0  0  0  0
    4.4163   -2.9821    0.0000 O   0  0  0  0  0  0  0  0  0  0  0  0
    3.8182    4.9821    0.0000 O   0  0  0  0  0  0  0  0  0  0  0  0
    3.7091   -0.2749    0.0000 O   0  0  0  0  0  0  0  0  0  0  0  0
    8.1484   -0.5179    0.0000 O   0  0  0  0  0  0  0  0  0  0  0  0
    9.1483   -3.2500    0.0000 O   0  0  0  0  0  0  0  0  0  0  0  0
    4.6842    1.4821    0.0000 O   0  0  0  0  0  0  0  0  0  0  0  0
    6.1483   -2.9821    0.0000 O   0  0  0  0  0  0  0  0  0  0  0  0
    2.0861    4.9821    0.0000 O   0  0  0  0  0  0  0  0  0  0  0  0
    2.0000    0.1764    0.0000 O   0  0  0  0  0  0  0  0  0  0  0  0
    5.5502   -1.0180    0.0000 C   0  0  0  0  0  0  0  0  0  0  0  0
    7.2823   -1.0180    0.0000 C   0  0  0  0  0  0  0  0  0  0  0  0
    5.5502   -0.0179    0.0000 C   0  0  0  0  0  0  0  0  0  0  0  0
    8.1483   -1.5180    0.0000 C   0  0  0  0  0  0  0  0  0  0  0  0
    8.1483    0.4821    0.0000 C   0  0  0  0  0  0  0  0  0  0  0  0
    7.6483   -4.1160    0.0000 C   0  0  0  0  0  0  0  0  0  0  0  0
    6.4163    1.4821    0.0000 C   0  0  0  0  0  0  0  0  0  0  0  0
    5.2823   -4.4821    0.0000 C   0  0  0  0  0  0  0  0  0  0  0  0
    2.9521    3.4821    0.0000 C   0  0  0  0  0  0  0  0  0  0  0  0
    2.9521    1.4821    0.0000 C   0  0  0  0  0  0  0  0  0  0  0  0
    8.6531    1.8749    0.0000 C   0  0  0  0  0  0  0  0  0  0  0  0
    6.6483   -4.1160    0.0000 C   0  0  0  0  0  0  0  0  0  0  0  0
    8.1483    1.4821    0.0000 C   0  0  0  0  0  0  0  0  0  0  0  0
    6.8492   -3.5193    0.0000 C   0  0  0  0  0  0  0  0  0  0  0  0
    7.3701    2.6157    0.0000 C   0  0  0  0  0  0  0  0  0  0  0  0
    6.1483   -4.9821    0.0000 C   0  0  0  0  0  0  0  0  0  0  0  0
    7.2823    1.9821    0.0000 C   0  0  0  0  0  0  0  0  0  0  0  0
    5.8637   -3.6718    0.0000 C   0  0  0  0  0  0  0  0  0  0  0  0
    4.6842    3.4821    0.0000 C   0  0  0  0  0  0  0  0  0  0  0  0
    4.4163   -1.9821    0.0000 C   0  0  0  0  0  0  0  0  0  0  0  0
    4.6842    4.4821    0.0000 C   0  0  0  0  0  0  0  0  0  0  0  0
    3.7091   -1.2749    0.0000 C   0  0  0  0  0  0  0  0  0  0  0  0
    2.0861    2.9821    0.0000 C   0  0  0  0  0  0  0  0  0  0  0  0
    2.0861    1.9821    0.0000 C   0  0  0  0  0  0  0  0  0  0  0  0
    3.8182    2.9821    0.0000 C   0  0  0  0  0  0  0  0  0  0  0  0
    3.8182    1.9821    0.0000 C   0  0  0  0  0  0  0  0  0  0  0  0
    7.2823   -0.0179    0.0000 C   0  0  0  0  0  0  0  0  0  0  0  0
    8.1483   -3.2500    0.0000 C   0  0  0  0  0  0  0  0  0  0  0  0
    5.5502    1.9821    0.0000 C   0  0  0  0  0  0  0  0  0  0  0  0
    5.2823   -3.4821    0.0000 C   0  0  0  0  0  0  0  0  0  0  0  0
    2.9521    4.4821    0.0000 C   0  0  0  0  0  0  0  0  0  0  0  0
    2.9521    0.4821    0.0000 C   0  0  0  0  0  0  0  0  0  0  0  0
    4.9396   -0.9103    0.0000 H   0  0  0  0  0  0  0  0  0  0  0  0
    5.3382   -1.6006    0.0000 H   0  0  0  0  0  0  0  0  0  0  0  0
    7.6808   -0.5430    0.0000 H   0  0  0  0  0  0  0  0  0  0  0  0
    6.8837   -0.5430    0.0000 H   0  0  0  0  0  0  0  0  0  0  0  0
    5.3382    0.5647    0.0000 H   0  0  0  0  0  0  0  0  0  0  0  0
    4.9396   -0.1256    0.0000 H   0  0  0  0  0  0  0  0  0  0  0  0
    8.6852   -1.8280    0.0000 H   0  0  0  0  0  0  0  0  0  0  0  0
    8.4583   -0.9810    0.0000 H   0  0  0  0  0  0  0  0  0  0  0  0
    9.2356    2.0874    0.0000 H   0  0  0  0  0  0  0  0  0  0  0  0
    6.3383   -3.5791    0.0000 H   0  0  0  0  0  0  0  0  0  0  0  0
    8.6852    1.7921    0.0000 H   0  0  0  0  0  0  0  0  0  0  0  0
    6.9990   -2.9177    0.0000 H   0  0  0  0  0  0  0  0  0  0  0  0
    7.2628    3.2263    0.0000 H   0  0  0  0  0  0  0  0  0  0  0  0
    6.3088   -5.5809    0.0000 H   0  0  0  0  0  0  0  0  0  0  0  0
    7.2823    2.6021    0.0000 H   0  0  0  0  0  0  0  0  0  0  0  0
    5.5391   -3.1435    0.0000 H   0  0  0  0  0  0  0  0  0  0  0  0
    4.0736    3.5897    0.0000 H   0  0  0  0  0  0  0  0  0  0  0  0
    4.4721    2.8994    0.0000 H   0  0  0  0  0  0  0  0  0  0  0  0
    5.0151   -2.1425    0.0000 H   0  0  0  0  0  0  0  0  0  0  0  0
    4.7263   -1.4451    0.0000 H   0  0  0  0  0  0  0  0  0  0  0  0
    5.2948    4.3744    0.0000 H   0  0  0  0  0  0  0  0  0  0  0  0
    4.8963    5.0647    0.0000 H   0  0  0  0  0  0  0  0  0  0  0  0
    3.1103   -1.1145    0.0000 H   0  0  0  0  0  0  0  0  0  0  0  0
    3.3991   -1.8119    0.0000 H   0  0  0  0  0  0  0  0  0  0  0  0
    1.5492    3.2921    0.0000 H   0  0  0  0  0  0  0  0  0  0  0  0
    1.5492    1.6721    0.0000 H   0  0  0  0  0  0  0  0  0  0  0  0
    4.3551    3.2921    0.0000 H   0  0  0  0  0  0  0  0  0  0  0  0
    4.3551    1.6721    0.0000 H   0  0  0  0  0  0  0  0  0  0  0  0
  1 14  1  0  0  0  0
  1 15  1  0  0  0  0
  2 16  1  0  0  0  0
  2 40  1  0  0  0  0
  3 17  1  0  0  0  0
  3 41  1  0  0  0  0
  4 32  1  0  0  0  0
  4 42  1  0  0  0  0
  5 33  1  0  0  0  0
  5 43  1  0  0  0  0
  6 34  1  0  0  0  0
  6 44  1  0  0  0  0
  7 35  1  0  0  0  0
  7 45  1  0  0  0  0
  8 40  2  0  0  0  0
  9 41  2  0  0  0  0
 10 42  2  0  0  0  0
 11 43  2  0  0  0  0
 12 44  2  0  0  0  0
 13 45  2  0  0  0  0
 14 16  1  0  0  0  0
 14 46  1  0  0  0  0
 14 47  1  0  0  0  0
 15 17  1  0  0  0  0
 15 48  1  0  0  0  0
 15 49  1  0  0  0  0
 16 50  1  0  0  0  0
 16 51  1  0  0  0  0
 17 52  1  0  0  0  0
 17 53  1  0  0  0  0
 18 24  2  0  0  0  0
 18 26  1  0  0  0  0
 18 40  1  0  0  0  0
 19 25  2  0  0  0  0
 19 27  1  0  0  0  0
 19 41  1  0  0  0  0
 20 28  2  0  0  0  0
 20 30  1  0  0  0  0
 20 42  1  0  0  0  0
 21 29  2  0  0  0  0
 21 31  1  0  0  0  0
 21 43  1  0  0  0  0
 22 36  2  0  0  0  0
 22 38  1  0  0  0  0
 22 44  1  0  0  0  0
 23 37  2  0  0  0  0
 23 39  1  0  0  0  0
 23 45  1  0  0  0  0
 24 28  1  0  0  0  0
 24 54  1  0  0  0  0
 25 29  1  0  0  0  0
 25 55  1  0  0  0  0
 26 30  2  0  0  0  0
 26 56  1  0  0  0  0
 27 31  2  0  0  0  0
 27 57  1  0  0  0  0
 28 58  1  0  0  0  0
 29 59  1  0  0  0  0
 30 60  1  0  0  0  0
 31 61  1  0  0  0  0
 32 34  1  0  0  0  0
 32 62  1  0  0  0  0
 32 63  1  0  0  0  0
 33 35  1  0  0  0  0
 33 64  1  0  0  0  0
 33 65  1  0  0  0  0
 34 66  1  0  0  0  0
 34 67  1  0  0  0  0
 35 68  1  0  0  0  0
 35 69  1  0  0  0  0
 36 37  1  0  0  0  0
 36 70  1  0  0  0  0
 37 71  1  0  0  0  0
 38 39  2  0  0  0  0
 38 72  1  0  0  0  0
 39 73  1  0  0  0  0
M  END
> <PUBCHEM_COMPOUND_CID>
101380553

> <PUBCHEM_COMPOUND_CANONICALIZED>
1

> <PUBCHEM_CACTVS_COMPLEXITY>
938

> <PUBCHEM_CACTVS_HBOND_ACCEPTOR>
13

> <PUBCHEM_CACTVS_HBOND_DONOR>
0

> <PUBCHEM_CACTVS_ROTATABLE_BOND>
0

> <PUBCHEM_CACTVS_SUBSKEYS>
AAADceB8PAAAAAAAAAAAAAAAAAAAAAAAAAAwYMAAAAAAAAABUAAAGgAAAAAADACgmAIwCIAABACIAiDSCAACAAAkAAAIiAEACMgJJjKANRiCMQAkwAEKqYeIyDCOQAAAAAAAAACAAAAAAAAAAAAAAAAAAA==

> <PUBCHEM_IUPAC_OPENEYE_NAME>
3,6,13,16,23,26,29-heptaoxatetracyclo[29.2.2.28,11.218,21]nonatriaconta-1(34),8,10,18(37),19,21(36),31(35),32,38-nonaene-2,7,12,17,22,30-hexone

> <PUBCHEM_IUPAC_CAS_NAME>
3,6,13,16,23,26,29-heptaoxatetracyclo[29.2.2.28,11.218,21]nonatriaconta-1(34),8,10,18(37),19,21(36),31(35),32,38-nonaene-2,7,12,17,22,30-hexone

> <PUBCHEM_IUPAC_NAME_MARKUP>
3,6,13,16,23,26,29-heptaoxatetracyclo[29.2.2.2<SUP>8,11</SUP>.2<SUP>18,21</SUP>]nonatriaconta-1(34),8,10,18(37),19,21(36),31(35),32,38-nonaene-2,7,12,17,22,30-hexone

> <PUBCHEM_IUPAC_NAME>
3,6,13,16,23,26,29-heptaoxatetracyclo[29.2.2.28,11.218,21]nonatriaconta-1(34),8,10,18(37),19,21(36),31(35),32,38-nonaene-2,7,12,17,22,30-hexone

> <PUBCHEM_IUPAC_SYSTEMATIC_NAME>
3,6,13,16,23,26,29-heptaoxatetracyclo[29.2.2.28,11.218,21]nonatriaconta-1(34),8,10,18(37),19,21(36),31(35),32,38-nonaene-2,7,12,17,22,30-hexone

> <PUBCHEM_IUPAC_TRADITIONAL_NAME>
3,6,13,16,23,26,29-heptaoxatetracyclo[29.2.2.28,11.218,21]nonatriaconta-1(34),8,10,18(37),19,21(36),31(35),32,38-nonaene-2,7,12,17,22,30-triquinone

> <PUBCHEM_IUPAC_INCHI>
InChI=1S/C32H28O13/c33-27-21-1-5-23(6-2-21)29(35)42-17-19-44-31(37)25-9-11-26(12-10-25)32(38)45-20-18-43-30(36)24-7-3-22(4-8-24)28(34)41-16-14-39-13-15-40-27/h1-12H,13-20H2

> <PUBCHEM_IUPAC_INCHIKEY>
LYJWKXGJGUBTEL-UHFFFAOYSA-N

> <PUBCHEM_XLOGP3_AA>
4.1

> <PUBCHEM_EXACT_MASS>
620.15299094

> <PUBCHEM_MOLECULAR_FORMULA>
C32H28O13

> <PUBCHEM_MOLECULAR_WEIGHT>
620.6

> <PUBCHEM_SMILES>
C1COC(=O)C2=CC=C(C=C2)C(=O)OCCOC(=O)C3=CC=C(C=C3)C(=O)OCCOC(=O)C4=CC=C(C=C4)C(=O)OCCO1

> <PUBCHEM_CONNECTIVITY_SMILES>
C1COC(=O)C2=CC=C(C=C2)C(=O)OCCOC(=O)C3=CC=C(C=C3)C(=O)OCCOC(=O)C4=CC=C(C=C4)C(=O)OCCO1

> <PUBCHEM_CACTVS_TPSA>
167

> <PUBCHEM_MONOISOTOPIC_WEIGHT>
620.15299094

> <PUBCHEM_TOTAL_CHARGE>
0

> <PUBCHEM_HEAVY_ATOM_COUNT>
45

> <PUBCHEM_ATOM_DEF_STEREO_COUNT>
0

> <PUBCHEM_ATOM_UDEF_STEREO_COUNT>
0

> <PUBCHEM_BOND_DEF_STEREO_COUNT>
0

> <PUBCHEM_BOND_UDEF_STEREO_COUNT>
0

> <PUBCHEM_ISOTOPIC_ATOM_COUNT>
0

> <PUBCHEM_COMPONENT_COUNT>
1

> <PUBCHEM_CACTVS_TAUTO_COUNT>
-1

> <PUBCHEM_COORDINATE_TYPE>
1
5
255

> <PUBCHEM_BONDANNOTATIONS>
18  24  8
18  26  8
19  25  8
19  27  8
20  28  8
20  30  8
21  29  8
21  31  8
22  36  8
22  38  8
23  37  8
23  39  8
24  28  8
25  29  8
26  30  8
27  31  8
36  37  8
38  39  8

$$$$
