101404911
  -OEChem-05122609472D

 51 54  0     1  0  0  0  0  0999 V2000
    2.5357   -2.1314    0.0000 O   0  0  0  0  0  0  0  0  0  0  0  0
    6.1968   -0.0791    0.0000 C   0  0  2  0  0  0  0  0  0  0  0  0
    5.2868   -0.5859    0.0000 C   0  0  2  0  0  0  0  0  0  0  0  0
    7.0628   -0.5791    0.0000 C   0  0  2  0  0  0  0  0  0  0  0  0
    5.2787   -1.6275    0.0000 C   0  0  2  0  0  0  0  0  0  0  0  0
    7.9288   -0.0791    0.0000 C   0  0  0  0  0  0  0  0  0  0  0  0
    7.0789   -1.6206    0.0000 C   0  0  0  0  0  0  0  0  0  0  0  0
    6.1968    0.9209    0.0000 C   0  0  0  0  0  0  0  0  0  0  0  0
    6.1808   -2.1483    0.0000 C   0  0  0  0  0  0  0  0  0  0  0  0
    7.9288    0.9209    0.0000 C   0  0  0  0  0  0  0  0  0  0  0  0
    8.8750    1.2257    0.0000 C   0  0  0  0  0  0  0  0  0  0  0  0
    7.0628    1.4209    0.0000 C   0  0  0  0  0  0  0  0  0  0  0  0
    4.3433   -2.1773    0.0000 C   0  0  0  0  0  0  0  0  0  0  0  0
    8.8750   -0.3838    0.0000 C   0  0  0  0  0  0  0  0  0  0  0  0
    9.4587    0.4209    0.0000 C   0  0  0  0  0  0  0  0  0  0  0  0
    4.3599   -0.0218    0.0000 C   0  0  0  0  0  0  0  0  0  0  0  0
    5.2945    0.4140    0.0000 C   0  0  0  0  0  0  0  0  0  0  0  0
    3.4037   -1.6348    0.0000 C   0  0  1  0  0  0  0  0  0  0  0  0
    3.4121   -0.5498    0.0000 C   0  0  0  0  0  0  0  0  0  0  0  0
    9.6851    1.8120    0.0000 C   0  0  0  0  0  0  0  0  0  0  0  0
    8.5677    2.1773    0.0000 C   0  0  0  0  0  0  0  0  0  0  0  0
    6.9329    0.3459    0.0000 H   0  0  0  0  0  0  0  0  0  0  0  0
    7.8022   -0.9984    0.0000 H   0  0  0  0  0  0  0  0  0  0  0  0
    5.2820   -2.4775    0.0000 H   0  0  0  0  0  0  0  0  0  0  0  0
    7.2969   -2.2010    0.0000 H   0  0  0  0  0  0  0  0  0  0  0  0
    7.6880   -1.5051    0.0000 H   0  0  0  0  0  0  0  0  0  0  0  0
    5.9847    1.5035    0.0000 H   0  0  0  0  0  0  0  0  0  0  0  0
    5.5862    0.8133    0.0000 H   0  0  0  0  0  0  0  0  0  0  0  0
    5.7835   -2.6243    0.0000 H   0  0  0  0  0  0  0  0  0  0  0  0
    6.5818   -2.6212    0.0000 H   0  0  0  0  0  0  0  0  0  0  0  0
    7.4613    1.8959    0.0000 H   0  0  0  0  0  0  0  0  0  0  0  0
    6.6643    1.8959    0.0000 H   0  0  0  0  0  0  0  0  0  0  0  0
    3.9460   -2.6532    0.0000 H   0  0  0  0  0  0  0  0  0  0  0  0
    4.7443   -2.6501    0.0000 H   0  0  0  0  0  0  0  0  0  0  0  0
    8.6240   -0.9507    0.0000 H   0  0  0  0  0  0  0  0  0  0  0  0
    9.4124   -0.6930    0.0000 H   0  0  0  0  0  0  0  0  0  0  0  0
    9.9195    0.0062    0.0000 H   0  0  0  0  0  0  0  0  0  0  0  0
    9.9195    0.8357    0.0000 H   0  0  0  0  0  0  0  0  0  0  0  0
    4.3719    0.5980    0.0000 H   0  0  0  0  0  0  0  0  0  0  0  0
    5.9145    0.4093    0.0000 H   0  0  0  0  0  0  0  0  0  0  0  0
    5.2993    1.0340    0.0000 H   0  0  0  0  0  0  0  0  0  0  0  0
    4.6745    0.4188    0.0000 H   0  0  0  0  0  0  0  0  0  0  0  0
    3.4025   -2.2548    0.0000 H   0  0  0  0  0  0  0  0  0  0  0  0
    2.8787   -0.2336    0.0000 H   0  0  0  0  0  0  0  0  0  0  0  0
   10.0486    1.3098    0.0000 H   0  0  0  0  0  0  0  0  0  0  0  0
   10.1873    2.1756    0.0000 H   0  0  0  0  0  0  0  0  0  0  0  0
    9.3215    2.3143    0.0000 H   0  0  0  0  0  0  0  0  0  0  0  0
    9.1577    2.3678    0.0000 H   0  0  0  0  0  0  0  0  0  0  0  0
    8.3771    2.7672    0.0000 H   0  0  0  0  0  0  0  0  0  0  0  0
    7.9777    1.9867    0.0000 H   0  0  0  0  0  0  0  0  0  0  0  0
    2.0000   -1.8193    0.0000 H   0  0  0  0  0  0  0  0  0  0  0  0
 18  1  1  6  0  0  0
  1 51  1  0  0  0  0
  2  3  1  0  0  0  0
  2  4  1  0  0  0  0
  2  8  1  0  0  0  0
  2 22  1  6  0  0  0
  3  5  1  0  0  0  0
  3 16  1  0  0  0  0
  3 17  1  1  0  0  0
  4  6  1  0  0  0  0
  4  7  1  0  0  0  0
  4 23  1  1  0  0  0
  5  9  1  0  0  0  0
  5 13  1  0  0  0  0
  5 24  1  1  0  0  0
  6 10  2  0  0  0  0
  6 14  1  0  0  0  0
  7  9  1  0  0  0  0
  7 25  1  0  0  0  0
  7 26  1  0  0  0  0
  8 12  1  0  0  0  0
  8 27  1  0  0  0  0
  8 28  1  0  0  0  0
  9 29  1  0  0  0  0
  9 30  1  0  0  0  0
 10 11  1  0  0  0  0
 10 12  1  0  0  0  0
 11 15  1  0  0  0  0
 11 20  1  0  0  0  0
 11 21  1  0  0  0  0
 12 31  1  0  0  0  0
 12 32  1  0  0  0  0
 13 18  1  0  0  0  0
 13 33  1  0  0  0  0
 13 34  1  0  0  0  0
 14 15  1  0  0  0  0
 14 35  1  0  0  0  0
 14 36  1  0  0  0  0
 15 37  1  0  0  0  0
 15 38  1  0  0  0  0
 16 19  2  0  0  0  0
 16 39  1  0  0  0  0
 17 40  1  0  0  0  0
 17 41  1  0  0  0  0
 17 42  1  0  0  0  0
 18 19  1  0  0  0  0
 18 43  1  0  0  0  0
 19 44  1  0  0  0  0
 20 45  1  0  0  0  0
 20 46  1  0  0  0  0
 20 47  1  0  0  0  0
 21 48  1  0  0  0  0
 21 49  1  0  0  0  0
 21 50  1  0  0  0  0
M  END
> <PUBCHEM_COMPOUND_CID>
101404911

> <PUBCHEM_COMPOUND_CANONICALIZED>
1

> <PUBCHEM_CACTVS_COMPLEXITY>
512

> <PUBCHEM_CACTVS_HBOND_ACCEPTOR>
1

> <PUBCHEM_CACTVS_HBOND_DONOR>
1

> <PUBCHEM_CACTVS_ROTATABLE_BOND>
0

> <PUBCHEM_CACTVS_SUBSKEYS>
AAADceB4IAAAAAAAAAAAAAAAAAAAAQAAAAAwQIAAAAAAAGCAAAAAGgAACAAADxSggAICAAAAAgCAAiBCAAAAAAAgAAAICAAAAAgAFAIAAQAAUAAEgAAIEAOAwPAPgAAAAAAAAACAAAQAACAAAAAAAAAAAA==

> <PUBCHEM_IUPAC_OPENEYE_NAME>
(3S,5R,8R,9S,10R)-10,17,17-trimethyl-4,5,6,7,8,9,11,12,15,16-decahydro-3H-cyclopenta[a]phenanthren-3-ol

> <PUBCHEM_IUPAC_CAS_NAME>
(3S,5R,8R,9S,10R)-10,17,17-trimethyl-4,5,6,7,8,9,11,12,15,16-decahydro-3H-cyclopenta[a]phenanthren-3-ol

> <PUBCHEM_IUPAC_NAME_MARKUP>
(3<I>S</I>,5<I>R</I>,8<I>R</I>,9<I>S</I>,10<I>R</I>)-10,17,17-trimethyl-4,5,6,7,8,9,11,12,15,16-decahydro-3<I>H</I>-cyclopenta[a]phenanthren-3-ol

> <PUBCHEM_IUPAC_NAME>
(3S,5R,8R,9S,10R)-10,17,17-trimethyl-4,5,6,7,8,9,11,12,15,16-decahydro-3H-cyclopenta[a]phenanthren-3-ol

> <PUBCHEM_IUPAC_SYSTEMATIC_NAME>
(3S,5R,8R,9S,10R)-10,17,17-trimethyl-4,5,6,7,8,9,11,12,15,16-decahydro-3H-cyclopenta[a]phenanthren-3-ol

> <PUBCHEM_IUPAC_TRADITIONAL_NAME>
(3S,5R,8R,9S,10R)-10,17,17-trimethyl-4,5,6,7,8,9,11,12,15,16-decahydro-3H-cyclopenta[a]phenanthren-3-ol

> <PUBCHEM_IUPAC_INCHI>
InChI=1S/C20H30O/c1-19(2)10-9-16-15-5-4-13-12-14(21)8-11-20(13,3)18(15)7-6-17(16)19/h8,11,13-15,18,21H,4-7,9-10,12H2,1-3H3/t13-,14-,15+,18+,20+/m1/s1

> <PUBCHEM_IUPAC_INCHIKEY>
YMHCJHYINLDCCN-AAFQGDDYSA-N

> <PUBCHEM_XLOGP3_AA>
4.6

> <PUBCHEM_EXACT_MASS>
286.229665576

> <PUBCHEM_MOLECULAR_FORMULA>
C20H30O

> <PUBCHEM_MOLECULAR_WEIGHT>
286.5

> <PUBCHEM_SMILES>
C[C@]12C=C[C@H](C[C@H]1CC[C@@H]3[C@@H]2CCC4=C3CCC4(C)C)O

> <PUBCHEM_CONNECTIVITY_SMILES>
CC1(CCC2=C1CCC3C2CCC4C3(C=CC(C4)O)C)C

> <PUBCHEM_CACTVS_TPSA>
20.2

> <PUBCHEM_MONOISOTOPIC_WEIGHT>
286.229665576

> <PUBCHEM_TOTAL_CHARGE>
0

> <PUBCHEM_HEAVY_ATOM_COUNT>
21

> <PUBCHEM_ATOM_DEF_STEREO_COUNT>
5

> <PUBCHEM_ATOM_UDEF_STEREO_COUNT>
0

> <PUBCHEM_BOND_DEF_STEREO_COUNT>
0

> <PUBCHEM_BOND_UDEF_STEREO_COUNT>
0

> <PUBCHEM_ISOTOPIC_ATOM_COUNT>
0

> <PUBCHEM_COMPONENT_COUNT>
1

> <PUBCHEM_CACTVS_TAUTO_COUNT>
-1

> <PUBCHEM_COORDINATE_TYPE>
1
5
255

> <PUBCHEM_BONDANNOTATIONS>
18  1  6
2  22  6
3  17  5
4  23  5
5  24  5

$$$$
