101536705
  -OEChem-05122609042D

 62 61  0     1  0  0  0  0  0999 V2000
   10.6603   -0.5000    0.0000 P   0  0  3  0  0  0  0  0  0  0  0  0
   15.3564    1.3660    0.0000 F   0  0  0  0  0  0  0  0  0  0  0  0
   16.3564   -0.3660    0.0000 F   0  0  0  0  0  0  0  0  0  0  0  0
   16.2224    1.8660    0.0000 F   0  0  0  0  0  0  0  0  0  0  0  0
   17.2224    0.1340    0.0000 F   0  0  0  0  0  0  0  0  0  0  0  0
   14.4904    0.8660    0.0000 F   0  0  0  0  0  0  0  0  0  0  0  0
   15.4904   -0.8660    0.0000 F   0  0  0  0  0  0  0  0  0  0  0  0
   17.0885    2.3660    0.0000 F   0  0  0  0  0  0  0  0  0  0  0  0
   18.0885    0.6340    0.0000 F   0  0  0  0  0  0  0  0  0  0  0  0
   13.6244    0.3660    0.0000 F   0  0  0  0  0  0  0  0  0  0  0  0
   14.6244   -1.3660    0.0000 F   0  0  0  0  0  0  0  0  0  0  0  0
   18.9545    1.1340    0.0000 F   0  0  0  0  0  0  0  0  0  0  0  0
   17.9545    2.8660    0.0000 F   0  0  0  0  0  0  0  0  0  0  0  0
    5.8301   -0.1340    0.0000 F   0  0  0  0  0  0  0  0  0  0  0  0
    6.8301   -1.8660    0.0000 F   0  0  0  0  0  0  0  0  0  0  0  0
    4.9641   -0.6340    0.0000 F   0  0  0  0  0  0  0  0  0  0  0  0
    5.9641   -2.3660    0.0000 F   0  0  0  0  0  0  0  0  0  0  0  0
    6.6962    0.3660    0.0000 F   0  0  0  0  0  0  0  0  0  0  0  0
    7.6962   -1.3660    0.0000 F   0  0  0  0  0  0  0  0  0  0  0  0
    4.0981   -1.1340    0.0000 F   0  0  0  0  0  0  0  0  0  0  0  0
    5.0981   -2.8660    0.0000 F   0  0  0  0  0  0  0  0  0  0  0  0
   19.8205    1.6340    0.0000 F   0  0  0  0  0  0  0  0  0  0  0  0
   18.8205    3.3660    0.0000 F   0  0  0  0  0  0  0  0  0  0  0  0
    3.2321   -1.6340    0.0000 F   0  0  0  0  0  0  0  0  0  0  0  0
    4.2321   -3.3660    0.0000 F   0  0  0  0  0  0  0  0  0  0  0  0
   21.0526    3.5000    0.0000 F   0  0  0  0  0  0  0  0  0  0  0  0
   20.6865    2.1340    0.0000 F   0  0  0  0  0  0  0  0  0  0  0  0
   19.6865    3.8660    0.0000 F   0  0  0  0  0  0  0  0  0  0  0  0
    2.0000   -3.5000    0.0000 F   0  0  0  0  0  0  0  0  0  0  0  0
    2.3660   -2.1340    0.0000 F   0  0  0  0  0  0  0  0  0  0  0  0
    3.3660   -3.8660    0.0000 F   0  0  0  0  0  0  0  0  0  0  0  0
   11.5263   -1.0000    0.0000 O   0  0  0  0  0  0  0  0  0  0  0  0
    9.7942   -0.0000    0.0000 O   0  0  0  0  0  0  0  0  0  0  0  0
   10.1603   -1.3660    0.0000 O   0  0  0  0  0  0  0  0  0  0  0  0
   11.1603    0.3660    0.0000 O   0  0  0  0  0  0  0  0  0  0  0  0
   15.8564    0.5000    0.0000 C   0  0  0  0  0  0  0  0  0  0  0  0
   16.7224    1.0000    0.0000 C   0  0  0  0  0  0  0  0  0  0  0  0
   14.9904    0.0000    0.0000 C   0  0  0  0  0  0  0  0  0  0  0  0
   17.5885    1.5000    0.0000 C   0  0  0  0  0  0  0  0  0  0  0  0
   14.1244   -0.5000    0.0000 C   0  0  0  0  0  0  0  0  0  0  0  0
   18.4545    2.0000    0.0000 C   0  0  0  0  0  0  0  0  0  0  0  0
   13.2583   -1.0000    0.0000 C   0  0  0  0  0  0  0  0  0  0  0  0
    6.3301   -1.0000    0.0000 C   0  0  0  0  0  0  0  0  0  0  0  0
    5.4641   -1.5000    0.0000 C   0  0  0  0  0  0  0  0  0  0  0  0
    7.1962   -0.5000    0.0000 C   0  0  0  0  0  0  0  0  0  0  0  0
    4.5981   -2.0000    0.0000 C   0  0  0  0  0  0  0  0  0  0  0  0
   19.3205    2.5000    0.0000 C   0  0  0  0  0  0  0  0  0  0  0  0
    8.0622   -0.0000    0.0000 C   0  0  0  0  0  0  0  0  0  0  0  0
   12.3923   -0.5000    0.0000 C   0  0  0  0  0  0  0  0  0  0  0  0
    3.7321   -2.5000    0.0000 C   0  0  0  0  0  0  0  0  0  0  0  0
    8.9282   -0.5000    0.0000 C   0  0  0  0  0  0  0  0  0  0  0  0
   20.1865    3.0000    0.0000 C   0  0  0  0  0  0  0  0  0  0  0  0
    2.8660   -3.0000    0.0000 C   0  0  0  0  0  0  0  0  0  0  0  0
   12.8598   -1.4750    0.0000 H   0  0  0  0  0  0  0  0  0  0  0  0
   13.6569   -1.4750    0.0000 H   0  0  0  0  0  0  0  0  0  0  0  0
    8.4607    0.4749    0.0000 H   0  0  0  0  0  0  0  0  0  0  0  0
    7.6637    0.4749    0.0000 H   0  0  0  0  0  0  0  0  0  0  0  0
   12.7908   -0.0251    0.0000 H   0  0  0  0  0  0  0  0  0  0  0  0
   11.9938   -0.0251    0.0000 H   0  0  0  0  0  0  0  0  0  0  0  0
    8.5297   -0.9749    0.0000 H   0  0  0  0  0  0  0  0  0  0  0  0
    9.3267   -0.9749    0.0000 H   0  0  0  0  0  0  0  0  0  0  0  0
   10.4703   -1.9030    0.0000 H   0  0  0  0  0  0  0  0  0  0  0  0
  1 32  1  0  0  0  0
  1 33  1  0  0  0  0
  1 34  1  0  0  0  0
  1 35  2  0  0  0  0
  2 36  1  0  0  0  0
  3 36  1  0  0  0  0
  4 37  1  0  0  0  0
  5 37  1  0  0  0  0
  6 38  1  0  0  0  0
  7 38  1  0  0  0  0
  8 39  1  0  0  0  0
  9 39  1  0  0  0  0
 10 40  1  0  0  0  0
 11 40  1  0  0  0  0
 12 41  1  0  0  0  0
 13 41  1  0  0  0  0
 14 43  1  0  0  0  0
 15 43  1  0  0  0  0
 16 44  1  0  0  0  0
 17 44  1  0  0  0  0
 18 45  1  0  0  0  0
 19 45  1  0  0  0  0
 20 46  1  0  0  0  0
 21 46  1  0  0  0  0
 22 47  1  0  0  0  0
 23 47  1  0  0  0  0
 24 50  1  0  0  0  0
 25 50  1  0  0  0  0
 26 52  1  0  0  0  0
 27 52  1  0  0  0  0
 28 52  1  0  0  0  0
 29 53  1  0  0  0  0
 30 53  1  0  0  0  0
 31 53  1  0  0  0  0
 32 49  1  0  0  0  0
 33 51  1  0  0  0  0
 34 62  1  0  0  0  0
 36 37  1  0  0  0  0
 36 38  1  0  0  0  0
 37 39  1  0  0  0  0
 38 40  1  0  0  0  0
 39 41  1  0  0  0  0
 40 42  1  0  0  0  0
 41 47  1  0  0  0  0
 42 49  1  0  0  0  0
 42 54  1  0  0  0  0
 42 55  1  0  0  0  0
 43 44  1  0  0  0  0
 43 45  1  0  0  0  0
 44 46  1  0  0  0  0
 45 48  1  0  0  0  0
 46 50  1  0  0  0  0
 47 52  1  0  0  0  0
 48 51  1  0  0  0  0
 48 56  1  0  0  0  0
 48 57  1  0  0  0  0
 49 58  1  0  0  0  0
 49 59  1  0  0  0  0
 50 53  1  0  0  0  0
 51 60  1  0  0  0  0
 51 61  1  0  0  0  0
M  END
> <PUBCHEM_COMPOUND_CID>
101536705

> <PUBCHEM_COMPOUND_CANONICALIZED>
1

> <PUBCHEM_CACTVS_COMPLEXITY>
1330

> <PUBCHEM_CACTVS_HBOND_ACCEPTOR>
34

> <PUBCHEM_CACTVS_HBOND_DONOR>
1

> <PUBCHEM_CACTVS_ROTATABLE_BOND>
18

> <PUBCHEM_CACTVS_SUBSKEYS>
AAADccB4OcIAAAAAAAAAAAAAAAAAAAAAAAAAAAAAAAAAAAAAAAAAGwAACCAACACggBIAAAAAARAAQAAAAIAAAAAAAAAAAAAAAAAAAAIAAAAAAAAEAAAAAAGAwKAAAAAAAAAAAAAAAAAAAAAAAAAAAAAAAA==

> <PUBCHEM_IUPAC_OPENEYE_NAME>
3,3,4,4,5,5,6,6,7,7,8,8,9,9,10,10,10-heptadecafluorodecyl 3,3,4,4,5,5,6,6,7,7,8,8,8-tridecafluorooctyl hydrogen phosphate

> <PUBCHEM_IUPAC_CAS_NAME>
3,3,4,4,5,5,6,6,7,7,8,8,9,9,10,10,10-heptadecafluorodecyl 3,3,4,4,5,5,6,6,7,7,8,8,8-tridecafluorooctyl hydrogen phosphate

> <PUBCHEM_IUPAC_NAME_MARKUP>
3,3,4,4,5,5,6,6,7,7,8,8,9,9,10,10,10-heptadecafluorodecyl 3,3,4,4,5,5,6,6,7,7,8,8,8-tridecafluorooctyl hydrogen phosphate

> <PUBCHEM_IUPAC_NAME>
3,3,4,4,5,5,6,6,7,7,8,8,9,9,10,10,10-heptadecafluorodecyl 3,3,4,4,5,5,6,6,7,7,8,8,8-tridecafluorooctyl hydrogen phosphate

> <PUBCHEM_IUPAC_SYSTEMATIC_NAME>
3,3,4,4,5,5,6,6,7,7,8,8,9,9,10,10,10-heptadecakis(fluoranyl)decyl 3,3,4,4,5,5,6,6,7,7,8,8,8-tridecakis(fluoranyl)octyl hydrogen phosphate

> <PUBCHEM_IUPAC_TRADITIONAL_NAME>
3,3,4,4,5,5,6,6,7,7,8,8,9,9,10,10,10-heptadecafluorodecyl 3,3,4,4,5,5,6,6,7,7,8,8,8-tridecafluorooctyl hydrogen phosphate

> <PUBCHEM_IUPAC_INCHI>
InChI=1S/C18H9F30O4P/c19-5(20,7(23,24)9(27,28)11(31,32)12(33,34)14(37,38)16(41,42)18(46,47)48)1-3-51-53(49,50)52-4-2-6(21,22)8(25,26)10(29,30)13(35,36)15(39,40)17(43,44)45/h1-4H2,(H,49,50)

> <PUBCHEM_IUPAC_INCHIKEY>
KHLRYLUKBJEYFH-UHFFFAOYSA-N

> <PUBCHEM_XLOGP3_AA>
10

> <PUBCHEM_EXACT_MASS>
889.9759406

> <PUBCHEM_MOLECULAR_FORMULA>
C18H9F30O4P

> <PUBCHEM_MOLECULAR_WEIGHT>
890.2

> <PUBCHEM_SMILES>
C(COP(=O)(O)OCCC(C(C(C(C(C(F)(F)F)(F)F)(F)F)(F)F)(F)F)(F)F)C(C(C(C(C(C(C(C(F)(F)F)(F)F)(F)F)(F)F)(F)F)(F)F)(F)F)(F)F

> <PUBCHEM_CONNECTIVITY_SMILES>
C(COP(=O)(O)OCCC(C(C(C(C(C(F)(F)F)(F)F)(F)F)(F)F)(F)F)(F)F)C(C(C(C(C(C(C(C(F)(F)F)(F)F)(F)F)(F)F)(F)F)(F)F)(F)F)(F)F

> <PUBCHEM_CACTVS_TPSA>
55.8

> <PUBCHEM_MONOISOTOPIC_WEIGHT>
889.9759406

> <PUBCHEM_TOTAL_CHARGE>
0

> <PUBCHEM_HEAVY_ATOM_COUNT>
53

> <PUBCHEM_ATOM_DEF_STEREO_COUNT>
0

> <PUBCHEM_ATOM_UDEF_STEREO_COUNT>
0

> <PUBCHEM_BOND_DEF_STEREO_COUNT>
0

> <PUBCHEM_BOND_UDEF_STEREO_COUNT>
0

> <PUBCHEM_ISOTOPIC_ATOM_COUNT>
0

> <PUBCHEM_COMPONENT_COUNT>
1

> <PUBCHEM_CACTVS_TAUTO_COUNT>
-1

> <PUBCHEM_COORDINATE_TYPE>
1
5
255

$$$$
