101567675
  -OEChem-05122609112D

 24 23  0     0  0  0  0  0  0999 V2000
    4.0981    0.5490    0.0000 F   0  0  0  0  0  0  0  0  0  0  0  0
    5.0981   -1.1830    0.0000 F   0  0  0  0  0  0  0  0  0  0  0  0
    4.9641    1.0490    0.0000 F   0  0  0  0  0  0  0  0  0  0  0  0
    5.9641   -0.6830    0.0000 F   0  0  0  0  0  0  0  0  0  0  0  0
    3.2321    0.0490    0.0000 F   0  0  0  0  0  0  0  0  0  0  0  0
    4.2321   -1.6830    0.0000 F   0  0  0  0  0  0  0  0  0  0  0  0
    6.8301   -0.1830    0.0000 F   0  0  0  0  0  0  0  0  0  0  0  0
    5.8301    1.5490    0.0000 F   0  0  0  0  0  0  0  0  0  0  0  0
    2.0000   -1.8170    0.0000 F   0  0  0  0  0  0  0  0  0  0  0  0
    2.3660   -0.4510    0.0000 F   0  0  0  0  0  0  0  0  0  0  0  0
    3.3660   -2.1830    0.0000 F   0  0  0  0  0  0  0  0  0  0  0  0
    9.7942    0.6830    0.0000 O   0  0  0  0  0  0  0  0  0  0  0  0
    8.9282    2.1830    0.0000 O   0  0  0  0  0  0  0  0  0  0  0  0
    4.5981   -0.3170    0.0000 C   0  0  0  0  0  0  0  0  0  0  0  0
    5.4641    0.1830    0.0000 C   0  0  0  0  0  0  0  0  0  0  0  0
    3.7321   -0.8170    0.0000 C   0  0  0  0  0  0  0  0  0  0  0  0
    6.3301    0.6830    0.0000 C   0  0  0  0  0  0  0  0  0  0  0  0
    2.8660   -1.3170    0.0000 C   0  0  0  0  0  0  0  0  0  0  0  0
    7.1962    1.1830    0.0000 C   0  0  0  0  0  0  0  0  0  0  0  0
    8.0622    0.6830    0.0000 C   0  0  0  0  0  0  0  0  0  0  0  0
    8.9282    1.1830    0.0000 C   0  0  0  0  0  0  0  0  0  0  0  0
    7.1962    1.8030    0.0000 H   0  0  0  0  0  0  0  0  0  0  0  0
    8.0622    0.0630    0.0000 H   0  0  0  0  0  0  0  0  0  0  0  0
   10.3312    0.9930    0.0000 H   0  0  0  0  0  0  0  0  0  0  0  0
  1 14  1  0  0  0  0
  2 14  1  0  0  0  0
  3 15  1  0  0  0  0
  4 15  1  0  0  0  0
  5 16  1  0  0  0  0
  6 16  1  0  0  0  0
  7 17  1  0  0  0  0
  8 17  1  0  0  0  0
  9 18  1  0  0  0  0
 10 18  1  0  0  0  0
 11 18  1  0  0  0  0
 12 21  1  0  0  0  0
 12 24  1  0  0  0  0
 13 21  2  0  0  0  0
 14 15  1  0  0  0  0
 14 16  1  0  0  0  0
 15 17  1  0  0  0  0
 16 18  1  0  0  0  0
 17 19  1  0  0  0  0
 19 20  2  0  0  0  0
 19 22  1  0  0  0  0
 20 21  1  0  0  0  0
 20 23  1  0  0  0  0
M  END
> <PUBCHEM_COMPOUND_CID>
101567675

> <PUBCHEM_COMPOUND_CANONICALIZED>
1

> <PUBCHEM_CACTVS_COMPLEXITY>
434

> <PUBCHEM_CACTVS_HBOND_ACCEPTOR>
13

> <PUBCHEM_CACTVS_HBOND_DONOR>
1

> <PUBCHEM_CACTVS_ROTATABLE_BOND>
5

> <PUBCHEM_CACTVS_SUBSKEYS>
AAADcQBwMcAAAAAAAAAAAAAAAAAAAAAAAAAAAAAAAAAAAAAAAAAAGwAACAAACACAgBAACAAAAgCIACDSCAAAAAAgAAAICAAAAEgABAIAAAAAEAAAgAAIEYMAAAAAAAAAAAAAAAAAAAAAAAAAAAAAAAAAAA==

> <PUBCHEM_IUPAC_OPENEYE_NAME>
(E)-4,4,5,5,6,6,7,7,8,8,8-undecafluorooct-2-enoic acid

> <PUBCHEM_IUPAC_CAS_NAME>
(E)-4,4,5,5,6,6,7,7,8,8,8-undecafluoro-2-octenoic acid

> <PUBCHEM_IUPAC_NAME_MARKUP>
(<I>E</I>)-4,4,5,5,6,6,7,7,8,8,8-undecafluorooct-2-enoic acid

> <PUBCHEM_IUPAC_NAME>
(E)-4,4,5,5,6,6,7,7,8,8,8-undecafluorooct-2-enoic acid

> <PUBCHEM_IUPAC_SYSTEMATIC_NAME>
(E)-4,4,5,5,6,6,7,7,8,8,8-undecakis(fluoranyl)oct-2-enoic acid

> <PUBCHEM_IUPAC_TRADITIONAL_NAME>
(E)-4,4,5,5,6,6,7,7,8,8,8-undecafluorooct-2-enoic acid

> <PUBCHEM_IUPAC_INCHI>
InChI=1S/C8H3F11O2/c9-4(10,2-1-3(20)21)5(11,12)6(13,14)7(15,16)8(17,18)19/h1-2H,(H,20,21)/b2-1+

> <PUBCHEM_IUPAC_INCHIKEY>
UGMLUHQLUFIGNF-OWOJBTEDSA-N

> <PUBCHEM_XLOGP3_AA>
3.8

> <PUBCHEM_EXACT_MASS>
339.99573912

> <PUBCHEM_MOLECULAR_FORMULA>
C8H3F11O2

> <PUBCHEM_MOLECULAR_WEIGHT>
340.09

> <PUBCHEM_SMILES>
C(=C/C(C(C(C(C(F)(F)F)(F)F)(F)F)(F)F)(F)F)\C(=O)O

> <PUBCHEM_CONNECTIVITY_SMILES>
C(=CC(C(C(C(C(F)(F)F)(F)F)(F)F)(F)F)(F)F)C(=O)O

> <PUBCHEM_CACTVS_TPSA>
37.3

> <PUBCHEM_MONOISOTOPIC_WEIGHT>
339.99573912

> <PUBCHEM_TOTAL_CHARGE>
0

> <PUBCHEM_HEAVY_ATOM_COUNT>
21

> <PUBCHEM_ATOM_DEF_STEREO_COUNT>
0

> <PUBCHEM_ATOM_UDEF_STEREO_COUNT>
0

> <PUBCHEM_BOND_DEF_STEREO_COUNT>
1

> <PUBCHEM_BOND_UDEF_STEREO_COUNT>
0

> <PUBCHEM_ISOTOPIC_ATOM_COUNT>
0

> <PUBCHEM_COMPONENT_COUNT>
1

> <PUBCHEM_CACTVS_TAUTO_COUNT>
-1

> <PUBCHEM_COORDINATE_TYPE>
1
5
255

$$$$
