101511824
  -OEChem-05122609152D

 26 25  0     0  0  0  0  0  0999 V2000
    3.4030   -0.4815    0.0000 P   0  0  0  0  0  0  0  0  0  0  0  0
    6.3671    0.3845    0.0000 F   0  0  0  0  0  0  0  0  0  0  0  0
    7.3671   -1.3476    0.0000 F   0  0  0  0  0  0  0  0  0  0  0  0
    7.2331    0.8845    0.0000 F   0  0  0  0  0  0  0  0  0  0  0  0
    8.2331   -0.8476    0.0000 F   0  0  0  0  0  0  0  0  0  0  0  0
    8.0991    1.3845    0.0000 F   0  0  0  0  0  0  0  0  0  0  0  0
    9.0991   -0.3476    0.0000 F   0  0  0  0  0  0  0  0  0  0  0  0
   10.3312    1.5185    0.0000 F   0  0  0  0  0  0  0  0  0  0  0  0
    9.9651    0.1524    0.0000 F   0  0  0  0  0  0  0  0  0  0  0  0
    8.9651    1.8845    0.0000 F   0  0  0  0  0  0  0  0  0  0  0  0
    4.2690   -0.9815    0.0000 O   0  0  0  0  0  0  0  0  0  0  0  0
    2.5369    0.0185    0.0000 O   0  0  0  0  0  0  0  0  0  0  0  0
    2.9030   -1.3476    0.0000 O   0  0  0  0  0  0  0  0  0  0  0  0
    3.9030    0.3845    0.0000 O   0  0  0  0  0  0  0  0  0  0  0  0
    6.8671   -0.4815    0.0000 C   0  0  0  0  0  0  0  0  0  0  0  0
    7.7331    0.0185    0.0000 C   0  0  0  0  0  0  0  0  0  0  0  0
    6.0010   -0.9815    0.0000 C   0  0  0  0  0  0  0  0  0  0  0  0
    8.5991    0.5185    0.0000 C   0  0  0  0  0  0  0  0  0  0  0  0
    5.1350   -0.4815    0.0000 C   0  0  0  0  0  0  0  0  0  0  0  0
    9.4651    1.0185    0.0000 C   0  0  0  0  0  0  0  0  0  0  0  0
    5.6025   -1.4565    0.0000 H   0  0  0  0  0  0  0  0  0  0  0  0
    6.3996   -1.4565    0.0000 H   0  0  0  0  0  0  0  0  0  0  0  0
    5.5335   -0.0066    0.0000 H   0  0  0  0  0  0  0  0  0  0  0  0
    4.7365   -0.0066    0.0000 H   0  0  0  0  0  0  0  0  0  0  0  0
    2.0000   -0.2915    0.0000 H   0  0  0  0  0  0  0  0  0  0  0  0
    3.2130   -1.8845    0.0000 H   0  0  0  0  0  0  0  0  0  0  0  0
  1 11  1  0  0  0  0
  1 12  1  0  0  0  0
  1 13  1  0  0  0  0
  1 14  2  0  0  0  0
  2 15  1  0  0  0  0
  3 15  1  0  0  0  0
  4 16  1  0  0  0  0
  5 16  1  0  0  0  0
  6 18  1  0  0  0  0
  7 18  1  0  0  0  0
  8 20  1  0  0  0  0
  9 20  1  0  0  0  0
 10 20  1  0  0  0  0
 11 19  1  0  0  0  0
 12 25  1  0  0  0  0
 13 26  1  0  0  0  0
 15 16  1  0  0  0  0
 15 17  1  0  0  0  0
 16 18  1  0  0  0  0
 17 19  1  0  0  0  0
 17 21  1  0  0  0  0
 17 22  1  0  0  0  0
 18 20  1  0  0  0  0
 19 23  1  0  0  0  0
 19 24  1  0  0  0  0
M  END
> <PUBCHEM_COMPOUND_CID>
101511824

> <PUBCHEM_COMPOUND_CANONICALIZED>
1

> <PUBCHEM_CACTVS_COMPLEXITY>
386

> <PUBCHEM_CACTVS_HBOND_ACCEPTOR>
13

> <PUBCHEM_CACTVS_HBOND_DONOR>
2

> <PUBCHEM_CACTVS_ROTATABLE_BOND>
6

> <PUBCHEM_CACTVS_SUBSKEYS>
AAADcYBgOcIAAAAAAAAAAAAAAAAAAAAAAAAAAAAAAAAAAAAAAAAAGwAACCAACACggBIAAAAAARAAQAAAAIAAAAAAAAAAAAAAAAAAAAIAAAAAAAAEAAAAAAGAQAAAAAAAAAAAAAAAAAAAAAAAAAAAAAAAAA==

> <PUBCHEM_IUPAC_OPENEYE_NAME>
3,3,4,4,5,5,6,6,6-nonafluorohexyl dihydrogen phosphate

> <PUBCHEM_IUPAC_CAS_NAME>
3,3,4,4,5,5,6,6,6-nonafluorohexyl dihydrogen phosphate

> <PUBCHEM_IUPAC_NAME_MARKUP>
3,3,4,4,5,5,6,6,6-nonafluorohexyl dihydrogen phosphate

> <PUBCHEM_IUPAC_NAME>
3,3,4,4,5,5,6,6,6-nonafluorohexyl dihydrogen phosphate

> <PUBCHEM_IUPAC_SYSTEMATIC_NAME>
3,3,4,4,5,5,6,6,6-nonakis(fluoranyl)hexyl dihydrogen phosphate

> <PUBCHEM_IUPAC_TRADITIONAL_NAME>
3,3,4,4,5,5,6,6,6-nonafluorohexyl dihydrogen phosphate

> <PUBCHEM_IUPAC_INCHI>
InChI=1S/C6H6F9O4P/c7-3(8,1-2-19-20(16,17)18)4(9,10)5(11,12)6(13,14)15/h1-2H2,(H2,16,17,18)

> <PUBCHEM_IUPAC_INCHIKEY>
BBLFCNLVILKUEU-UHFFFAOYSA-N

> <PUBCHEM_XLOGP3_AA>
1.9

> <PUBCHEM_EXACT_MASS>
343.98599912

> <PUBCHEM_MOLECULAR_FORMULA>
C6H6F9O4P

> <PUBCHEM_MOLECULAR_WEIGHT>
344.07

> <PUBCHEM_SMILES>
C(COP(=O)(O)O)C(C(C(C(F)(F)F)(F)F)(F)F)(F)F

> <PUBCHEM_CONNECTIVITY_SMILES>
C(COP(=O)(O)O)C(C(C(C(F)(F)F)(F)F)(F)F)(F)F

> <PUBCHEM_CACTVS_TPSA>
66.8

> <PUBCHEM_MONOISOTOPIC_WEIGHT>
343.98599912

> <PUBCHEM_TOTAL_CHARGE>
0

> <PUBCHEM_HEAVY_ATOM_COUNT>
20

> <PUBCHEM_ATOM_DEF_STEREO_COUNT>
0

> <PUBCHEM_ATOM_UDEF_STEREO_COUNT>
0

> <PUBCHEM_BOND_DEF_STEREO_COUNT>
0

> <PUBCHEM_BOND_UDEF_STEREO_COUNT>
0

> <PUBCHEM_ISOTOPIC_ATOM_COUNT>
0

> <PUBCHEM_COMPONENT_COUNT>
1

> <PUBCHEM_CACTVS_TAUTO_COUNT>
-1

> <PUBCHEM_COORDINATE_TYPE>
1
5
255

$$$$
