101650
  -OEChem-05122608192D

 28 28  0     0  0  0  0  0  0999 V2000
    3.3660   -2.1411    0.0000 S   0  0  0  0  0  0  0  0  0  0  0  0
    3.2232    1.4910    0.0000 F   0  0  0  0  0  0  0  0  0  0  0  0
    4.3660   -2.1411    0.0000 F   0  0  0  0  0  0  0  0  0  0  0  0
    2.0000    0.2250    0.0000 F   0  0  0  0  0  0  0  0  0  0  0  0
    2.5000    1.0910    0.0000 F   0  0  0  0  0  0  0  0  0  0  0  0
    5.7321    0.2250    0.0000 F   0  0  0  0  0  0  0  0  0  0  0  0
    5.4981    0.8677    0.0000 F   0  0  0  0  0  0  0  0  0  0  0  0
    2.5000   -1.6411    0.0000 F   0  0  0  0  0  0  0  0  0  0  0  0
    2.0000   -0.7750    0.0000 F   0  0  0  0  0  0  0  0  0  0  0  0
    5.2321   -1.6411    0.0000 F   0  0  0  0  0  0  0  0  0  0  0  0
    5.7321   -0.7750    0.0000 F   0  0  0  0  0  0  0  0  0  0  0  0
    3.3420    2.1647    0.0000 F   0  0  0  0  0  0  0  0  0  0  0  0
    5.2081    1.6647    0.0000 F   0  0  0  0  0  0  0  0  0  0  0  0
    4.8921    3.5440    0.0000 F   0  0  0  0  0  0  0  0  0  0  0  0
    3.6104    2.9464    0.0000 F   0  0  0  0  0  0  0  0  0  0  0  0
    5.4898    2.2623    0.0000 F   0  0  0  0  0  0  0  0  0  0  0  0
    2.8660   -3.0071    0.0000 O   0  0  0  0  0  0  0  0  0  0  0  0
    4.0088   -2.9071    0.0000 O   0  0  0  0  0  0  0  0  0  0  0  0
    2.3812   -2.3147    0.0000 O   0  0  0  0  0  0  0  0  0  0  0  0
    3.8660    0.7250    0.0000 C   0  0  0  0  0  0  0  0  0  0  0  0
    3.8660   -1.2751    0.0000 C   0  0  0  0  0  0  0  0  0  0  0  0
    3.0000    0.2250    0.0000 C   0  0  0  0  0  0  0  0  0  0  0  0
    4.7321    0.2250    0.0000 C   0  0  0  0  0  0  0  0  0  0  0  0
    3.0000   -0.7750    0.0000 C   0  0  0  0  0  0  0  0  0  0  0  0
    4.7321   -0.7750    0.0000 C   0  0  0  0  0  0  0  0  0  0  0  0
    4.2081    1.6647    0.0000 C   0  0  0  0  0  0  0  0  0  0  0  0
    4.5501    2.6043    0.0000 C   0  0  0  0  0  0  0  0  0  0  0  0
    3.1760   -3.5440    0.0000 H   0  0  0  0  0  0  0  0  0  0  0  0
  1 17  1  0  0  0  0
  1 18  2  0  0  0  0
  1 19  2  0  0  0  0
  1 21  1  0  0  0  0
  2 20  1  0  0  0  0
  3 21  1  0  0  0  0
  4 22  1  0  0  0  0
  5 22  1  0  0  0  0
  6 23  1  0  0  0  0
  7 23  1  0  0  0  0
  8 24  1  0  0  0  0
  9 24  1  0  0  0  0
 10 25  1  0  0  0  0
 11 25  1  0  0  0  0
 12 26  1  0  0  0  0
 13 26  1  0  0  0  0
 14 27  1  0  0  0  0
 15 27  1  0  0  0  0
 16 27  1  0  0  0  0
 17 28  1  0  0  0  0
 20 22  1  0  0  0  0
 20 23  1  0  0  0  0
 20 26  1  0  0  0  0
 21 24  1  0  0  0  0
 21 25  1  0  0  0  0
 22 24  1  0  0  0  0
 23 25  1  0  0  0  0
 26 27  1  0  0  0  0
M  END
> <PUBCHEM_COMPOUND_CID>
101650

> <PUBCHEM_COMPOUND_CANONICALIZED>
1

> <PUBCHEM_CACTVS_COMPLEXITY>
701

> <PUBCHEM_CACTVS_HBOND_ACCEPTOR>
18

> <PUBCHEM_CACTVS_HBOND_DONOR>
1

> <PUBCHEM_CACTVS_ROTATABLE_BOND>
2

> <PUBCHEM_CACTVS_SUBSKEYS>
AAADcQBwMcBAAAAAAAAAAAAAAAAAAAAAAAAwAAAAAAAAAAAAAAAACQQACAAADAAAQBAAAAAAAIIAAAAAAHBAAAAAAAAAAAAAAAAAAAIAAAAAAAAAAAAAAAEAgIAOAAAAAAAAAAAgAAAAAAAAAAAAAAAAAA==

> <PUBCHEM_IUPAC_OPENEYE_NAME>
1,2,2,3,3,4,5,5,6,6-decafluoro-4-(1,1,2,2,2-pentafluoroethyl)cyclohexanesulfonic acid

> <PUBCHEM_IUPAC_CAS_NAME>
1,2,2,3,3,4,5,5,6,6-decafluoro-4-(1,1,2,2,2-pentafluoroethyl)-1-cyclohexanesulfonic acid

> <PUBCHEM_IUPAC_NAME_MARKUP>
1,2,2,3,3,4,5,5,6,6-decafluoro-4-(1,1,2,2,2-pentafluoroethyl)cyclohexane-1-sulfonic acid

> <PUBCHEM_IUPAC_NAME>
1,2,2,3,3,4,5,5,6,6-decafluoro-4-(1,1,2,2,2-pentafluoroethyl)cyclohexane-1-sulfonic acid

> <PUBCHEM_IUPAC_SYSTEMATIC_NAME>
1,2,2,3,3,4,5,5,6,6-decakis(fluoranyl)-4-[1,1,2,2,2-pentakis(fluoranyl)ethyl]cyclohexane-1-sulfonic acid

> <PUBCHEM_IUPAC_TRADITIONAL_NAME>
1,2,2,3,3,4,5,5,6,6-decafluoro-4-(1,1,2,2,2-pentafluoroethyl)cyclohexanesulfonic acid

> <PUBCHEM_IUPAC_INCHI>
InChI=1S/C8HF15O3S/c9-1(4(14,15)8(21,22)23)2(10,11)5(16,17)7(20,27(24,25)26)6(18,19)3(1,12)13/h(H,24,25,26)

> <PUBCHEM_IUPAC_INCHIKEY>
ICKAEAFPESRWOT-UHFFFAOYSA-N

> <PUBCHEM_XLOGP3_AA>
3.9

> <PUBCHEM_EXACT_MASS>
461.9406875

> <PUBCHEM_MOLECULAR_FORMULA>
C8HF15O3S

> <PUBCHEM_MOLECULAR_WEIGHT>
462.13

> <PUBCHEM_SMILES>
C1(C(C(C(C(C1(F)F)(F)F)(F)S(=O)(=O)O)(F)F)(F)F)(C(C(F)(F)F)(F)F)F

> <PUBCHEM_CONNECTIVITY_SMILES>
C1(C(C(C(C(C1(F)F)(F)F)(F)S(=O)(=O)O)(F)F)(F)F)(C(C(F)(F)F)(F)F)F

> <PUBCHEM_CACTVS_TPSA>
62.8

> <PUBCHEM_MONOISOTOPIC_WEIGHT>
461.9406875

> <PUBCHEM_TOTAL_CHARGE>
0

> <PUBCHEM_HEAVY_ATOM_COUNT>
27

> <PUBCHEM_ATOM_DEF_STEREO_COUNT>
0

> <PUBCHEM_ATOM_UDEF_STEREO_COUNT>
0

> <PUBCHEM_BOND_DEF_STEREO_COUNT>
0

> <PUBCHEM_BOND_UDEF_STEREO_COUNT>
0

> <PUBCHEM_ISOTOPIC_ATOM_COUNT>
0

> <PUBCHEM_COMPONENT_COUNT>
1

> <PUBCHEM_CACTVS_TAUTO_COUNT>
-1

> <PUBCHEM_COORDINATE_TYPE>
1
5
255

$$$$
