101606724
  -OEChem-05122608552D

 76 77  0     1  0  0  0  0  0999 V2000
    3.9082   -7.2944    0.0000 O   0  0  0  0  0  0  0  0  0  0  0  0
    5.5262   -7.2944    0.0000 O   0  0  0  0  0  0  0  0  0  0  0  0
    4.0362   -4.6208    0.0000 O   0  0  0  0  0  0  0  0  0  0  0  0
    2.4539   -3.9163    0.0000 O   0  0  0  0  0  0  0  0  0  0  0  0
    3.0863   -0.3667    0.0000 C   0  0  0  0  0  0  0  0  0  0  0  0
    3.4930    0.5469    0.0000 C   0  0  0  0  0  0  0  0  0  0  0  0
    3.6741   -1.1757    0.0000 C   0  0  0  0  0  0  0  0  0  0  0  0
    2.7688    7.4371    0.0000 C   0  0  0  0  0  0  0  0  0  0  0  0
    2.3621    6.5236    0.0000 C   0  0  0  0  0  0  0  0  0  0  0  0
    4.2172   -6.3434    0.0000 C   0  0  2  0  0  0  0  0  0  0  0  0
    2.9052    1.3559    0.0000 C   0  0  0  0  0  0  0  0  0  0  0  0
    2.1810    8.2461    0.0000 C   0  0  0  0  0  0  0  0  0  0  0  0
    2.9499    5.7146    0.0000 C   0  0  0  0  0  0  0  0  0  0  0  0
    3.2673   -2.0892    0.0000 C   0  0  0  0  0  0  0  0  0  0  0  0
    5.2172   -6.3434    0.0000 C   0  0  0  0  0  0  0  0  0  0  0  0
    3.3120    2.2694    0.0000 C   0  0  0  0  0  0  0  0  0  0  0  0
    2.5878    9.1597    0.0000 C   0  0  0  0  0  0  0  0  0  0  0  0
    4.7172   -7.8822    0.0000 C   0  0  1  0  0  0  0  0  0  0  0  0
    2.5431    4.8010    0.0000 C   0  0  0  0  0  0  0  0  0  0  0  0
    3.6294   -5.5344    0.0000 C   0  0  0  0  0  0  0  0  0  0  0  0
    3.8551   -2.8983    0.0000 C   0  0  0  0  0  0  0  0  0  0  0  0
    2.0000    9.9687    0.0000 C   0  0  0  0  0  0  0  0  0  0  0  0
    2.7242    3.0784    0.0000 C   0  0  0  0  0  0  0  0  0  0  0  0
    3.1309    3.9920    0.0000 C   0  0  0  0  0  0  0  0  0  0  0  0
    4.7172   -8.8822    0.0000 C   0  0  0  0  0  0  0  0  0  0  0  0
    3.4484   -3.8118    0.0000 C   0  0  0  0  0  0  0  0  0  0  0  0
    2.4067   10.8822    0.0000 C   0  0  0  0  0  0  0  0  0  0  0  0
    5.5832   -9.3822    0.0000 C   0  0  0  0  0  0  0  0  0  0  0  0
    3.8512   -9.3822    0.0000 C   0  0  0  0  0  0  0  0  0  0  0  0
    5.5832  -10.3822    0.0000 C   0  0  0  0  0  0  0  0  0  0  0  0
    3.8512  -10.3822    0.0000 C   0  0  0  0  0  0  0  0  0  0  0  0
    4.7172  -10.8822    0.0000 C   0  0  0  0  0  0  0  0  0  0  0  0
    2.5723   -0.0200    0.0000 H   0  0  0  0  0  0  0  0  0  0  0  0
    2.6556   -0.8127    0.0000 H   0  0  0  0  0  0  0  0  0  0  0  0
    4.0070    0.2002    0.0000 H   0  0  0  0  0  0  0  0  0  0  0  0
    3.9237    0.9928    0.0000 H   0  0  0  0  0  0  0  0  0  0  0  0
    4.1881   -1.5224    0.0000 H   0  0  0  0  0  0  0  0  0  0  0  0
    4.1048   -0.7297    0.0000 H   0  0  0  0  0  0  0  0  0  0  0  0
    3.2828    7.0904    0.0000 H   0  0  0  0  0  0  0  0  0  0  0  0
    3.1995    7.8831    0.0000 H   0  0  0  0  0  0  0  0  0  0  0  0
    1.8481    6.8703    0.0000 H   0  0  0  0  0  0  0  0  0  0  0  0
    1.9314    6.0776    0.0000 H   0  0  0  0  0  0  0  0  0  0  0  0
    3.6049   -6.4404    0.0000 H   0  0  0  0  0  0  0  0  0  0  0  0
    2.3912    1.7026    0.0000 H   0  0  0  0  0  0  0  0  0  0  0  0
    2.4746    0.9099    0.0000 H   0  0  0  0  0  0  0  0  0  0  0  0
    1.6670    8.5928    0.0000 H   0  0  0  0  0  0  0  0  0  0  0  0
    1.7504    7.8001    0.0000 H   0  0  0  0  0  0  0  0  0  0  0  0
    3.4639    5.3678    0.0000 H   0  0  0  0  0  0  0  0  0  0  0  0
    3.3806    6.1605    0.0000 H   0  0  0  0  0  0  0  0  0  0  0  0
    2.7533   -1.7426    0.0000 H   0  0  0  0  0  0  0  0  0  0  0  0
    2.8366   -2.5352    0.0000 H   0  0  0  0  0  0  0  0  0  0  0  0
    5.8237   -6.2145    0.0000 H   0  0  0  0  0  0  0  0  0  0  0  0
    5.1524   -5.7268    0.0000 H   0  0  0  0  0  0  0  0  0  0  0  0
    3.8260    1.9227    0.0000 H   0  0  0  0  0  0  0  0  0  0  0  0
    3.7427    2.7154    0.0000 H   0  0  0  0  0  0  0  0  0  0  0  0
    3.1018    8.8130    0.0000 H   0  0  0  0  0  0  0  0  0  0  0  0
    3.0185    9.6057    0.0000 H   0  0  0  0  0  0  0  0  0  0  0  0
    4.1648   -8.1637    0.0000 H   0  0  0  0  0  0  0  0  0  0  0  0
    2.0291    5.1477    0.0000 H   0  0  0  0  0  0  0  0  0  0  0  0
    2.1125    4.3550    0.0000 H   0  0  0  0  0  0  0  0  0  0  0  0
    3.1154   -5.1877    0.0000 H   0  0  0  0  0  0  0  0  0  0  0  0
    3.1988   -5.9804    0.0000 H   0  0  0  0  0  0  0  0  0  0  0  0
    4.3691   -3.2450    0.0000 H   0  0  0  0  0  0  0  0  0  0  0  0
    4.2858   -2.4523    0.0000 H   0  0  0  0  0  0  0  0  0  0  0  0
    1.4860   10.3154    0.0000 H   0  0  0  0  0  0  0  0  0  0  0  0
    1.5693    9.5227    0.0000 H   0  0  0  0  0  0  0  0  0  0  0  0
    2.1076    3.0136    0.0000 H   0  0  0  0  0  0  0  0  0  0  0  0
    3.7475    4.0568    0.0000 H   0  0  0  0  0  0  0  0  0  0  0  0
    2.9731   10.6301    0.0000 H   0  0  0  0  0  0  0  0  0  0  0  0
    2.6589   11.4486    0.0000 H   0  0  0  0  0  0  0  0  0  0  0  0
    1.8403   11.1344    0.0000 H   0  0  0  0  0  0  0  0  0  0  0  0
    6.1202   -9.0722    0.0000 H   0  0  0  0  0  0  0  0  0  0  0  0
    3.3143   -9.0722    0.0000 H   0  0  0  0  0  0  0  0  0  0  0  0
    6.1202  -10.6922    0.0000 H   0  0  0  0  0  0  0  0  0  0  0  0
    3.3143  -10.6922    0.0000 H   0  0  0  0  0  0  0  0  0  0  0  0
    4.7172  -11.5022    0.0000 H   0  0  0  0  0  0  0  0  0  0  0  0
  1 10  1  0  0  0  0
  1 18  1  0  0  0  0
  2 15  1  0  0  0  0
  2 18  1  0  0  0  0
  3 20  1  0  0  0  0
  3 26  1  0  0  0  0
  4 26  2  0  0  0  0
  5  6  1  0  0  0  0
  5  7  1  0  0  0  0
  5 33  1  0  0  0  0
  5 34  1  0  0  0  0
  6 11  1  0  0  0  0
  6 35  1  0  0  0  0
  6 36  1  0  0  0  0
  7 14  1  0  0  0  0
  7 37  1  0  0  0  0
  7 38  1  0  0  0  0
  8  9  1  0  0  0  0
  8 12  1  0  0  0  0
  8 39  1  0  0  0  0
  8 40  1  0  0  0  0
  9 13  1  0  0  0  0
  9 41  1  0  0  0  0
  9 42  1  0  0  0  0
 10 15  1  0  0  0  0
 10 20  1  1  0  0  0
 10 43  1  0  0  0  0
 11 16  1  0  0  0  0
 11 44  1  0  0  0  0
 11 45  1  0  0  0  0
 12 17  1  0  0  0  0
 12 46  1  0  0  0  0
 12 47  1  0  0  0  0
 13 19  1  0  0  0  0
 13 48  1  0  0  0  0
 13 49  1  0  0  0  0
 14 21  1  0  0  0  0
 14 50  1  0  0  0  0
 14 51  1  0  0  0  0
 15 52  1  0  0  0  0
 15 53  1  0  0  0  0
 16 23  1  0  0  0  0
 16 54  1  0  0  0  0
 16 55  1  0  0  0  0
 17 22  1  0  0  0  0
 17 56  1  0  0  0  0
 17 57  1  0  0  0  0
 18 25  1  1  0  0  0
 18 58  1  0  0  0  0
 19 24  1  0  0  0  0
 19 59  1  0  0  0  0
 19 60  1  0  0  0  0
 20 61  1  0  0  0  0
 20 62  1  0  0  0  0
 21 26  1  0  0  0  0
 21 63  1  0  0  0  0
 21 64  1  0  0  0  0
 22 27  1  0  0  0  0
 22 65  1  0  0  0  0
 22 66  1  0  0  0  0
 23 24  2  0  0  0  0
 23 67  1  0  0  0  0
 24 68  1  0  0  0  0
 25 28  2  0  0  0  0
 25 29  1  0  0  0  0
 27 69  1  0  0  0  0
 27 70  1  0  0  0  0
 27 71  1  0  0  0  0
 28 30  1  0  0  0  0
 28 72  1  0  0  0  0
 29 31  2  0  0  0  0
 29 73  1  0  0  0  0
 30 32  2  0  0  0  0
 30 74  1  0  0  0  0
 31 32  1  0  0  0  0
 31 75  1  0  0  0  0
 32 76  1  0  0  0  0
M  END
> <PUBCHEM_COMPOUND_CID>
101606724

> <PUBCHEM_COMPOUND_CANONICALIZED>
1

> <PUBCHEM_CACTVS_COMPLEXITY>
484

> <PUBCHEM_CACTVS_HBOND_ACCEPTOR>
4

> <PUBCHEM_CACTVS_HBOND_DONOR>
0

> <PUBCHEM_CACTVS_ROTATABLE_BOND>
19

> <PUBCHEM_CACTVS_SUBSKEYS>
AAADcfB4OAAAAAAAAAAAAAAAAAAAASAAAAAwAAAAAAAAAAABAAAAGgAAAAAADBSwmAMyCIAABACIAiDSCAACAAAgAAAIiAEACIgZJjKAMRiiMAAlwAEOqAeIyKCOAAAAAAAAAAAAAAAAAAAAAAAAAAAAAA==

> <PUBCHEM_IUPAC_OPENEYE_NAME>
[(2R,4R)-2-phenyl-1,3-dioxolan-4-yl]methyl (E)-octadec-9-enoate

> <PUBCHEM_IUPAC_CAS_NAME>
(E)-9-octadecenoic acid [(2R,4R)-2-phenyl-1,3-dioxolan-4-yl]methyl ester

> <PUBCHEM_IUPAC_NAME_MARKUP>
[(2<I>R</I>,4<I>R</I>)-2-phenyl-1,3-dioxolan-4-yl]methyl (<I>E</I>)-octadec-9-enoate

> <PUBCHEM_IUPAC_NAME>
[(2R,4R)-2-phenyl-1,3-dioxolan-4-yl]methyl (E)-octadec-9-enoate

> <PUBCHEM_IUPAC_SYSTEMATIC_NAME>
[(2R,4R)-2-phenyl-1,3-dioxolan-4-yl]methyl (E)-octadec-9-enoate

> <PUBCHEM_IUPAC_TRADITIONAL_NAME>
(E)-octadec-9-enoic acid [(2R,4R)-2-phenyl-1,3-dioxolan-4-yl]methyl ester

> <PUBCHEM_IUPAC_INCHI>
InChI=1S/C28H44O4/c1-2-3-4-5-6-7-8-9-10-11-12-13-14-15-19-22-27(29)30-23-26-24-31-28(32-26)25-20-17-16-18-21-25/h9-10,16-18,20-21,26,28H,2-8,11-15,19,22-24H2,1H3/b10-9+/t26-,28+/m0/s1

> <PUBCHEM_IUPAC_INCHIKEY>
CNQPKAWJKUVJLR-QBEQIGKASA-N

> <PUBCHEM_XLOGP3_AA>
8.8

> <PUBCHEM_EXACT_MASS>
444.32395988

> <PUBCHEM_MOLECULAR_FORMULA>
C28H44O4

> <PUBCHEM_MOLECULAR_WEIGHT>
444.6

> <PUBCHEM_SMILES>
CCCCCCCC/C=C/CCCCCCCC(=O)OC[C@H]1CO[C@H](O1)C2=CC=CC=C2

> <PUBCHEM_CONNECTIVITY_SMILES>
CCCCCCCCC=CCCCCCCCC(=O)OCC1COC(O1)C2=CC=CC=C2

> <PUBCHEM_CACTVS_TPSA>
44.8

> <PUBCHEM_MONOISOTOPIC_WEIGHT>
444.32395988

> <PUBCHEM_TOTAL_CHARGE>
0

> <PUBCHEM_HEAVY_ATOM_COUNT>
32

> <PUBCHEM_ATOM_DEF_STEREO_COUNT>
2

> <PUBCHEM_ATOM_UDEF_STEREO_COUNT>
0

> <PUBCHEM_BOND_DEF_STEREO_COUNT>
1

> <PUBCHEM_BOND_UDEF_STEREO_COUNT>
0

> <PUBCHEM_ISOTOPIC_ATOM_COUNT>
0

> <PUBCHEM_COMPONENT_COUNT>
1

> <PUBCHEM_CACTVS_TAUTO_COUNT>
-1

> <PUBCHEM_COORDINATE_TYPE>
1
5
255

> <PUBCHEM_BONDANNOTATIONS>
10  20  5
18  25  5
25  28  8
25  29  8
28  30  8
29  31  8
30  32  8
31  32  8

$$$$
