10186592
  -OEChem-05122609432D

 95 94  0     0  0  0  0  0  0999 V2000
   13.2583    4.2500    0.0000 O   0  0  0  0  0  0  0  0  0  0  0  0
   10.6603    3.7500    0.0000 O   0  0  0  0  0  0  0  0  0  0  0  0
   11.5263    2.2500    0.0000 O   0  0  0  0  0  0  0  0  0  0  0  0
    9.7942    5.2500    0.0000 O   0  0  0  0  0  0  0  0  0  0  0  0
   12.3923    0.7500    0.0000 O   0  0  0  0  0  0  0  0  0  0  0  0
   14.1244    2.7500    0.0000 O   0  0  0  0  0  0  0  0  0  0  0  0
    6.3301    4.2500    0.0000 C   0  0  0  0  0  0  0  0  0  0  0  0
    9.7942   -1.7500    0.0000 C   0  0  0  0  0  0  0  0  0  0  0  0
    5.4641    3.7500    0.0000 C   0  0  0  0  0  0  0  0  0  0  0  0
    8.9282   -2.2500    0.0000 C   0  0  0  0  0  0  0  0  0  0  0  0
    7.1962    3.7500    0.0000 C   0  0  0  0  0  0  0  0  0  0  0  0
    9.7942   -0.7500    0.0000 C   0  0  0  0  0  0  0  0  0  0  0  0
    4.5981    4.2500    0.0000 C   0  0  0  0  0  0  0  0  0  0  0  0
    8.9282   -3.2500    0.0000 C   0  0  0  0  0  0  0  0  0  0  0  0
    8.0622    4.2500    0.0000 C   0  0  0  0  0  0  0  0  0  0  0  0
   10.6603   -0.2500    0.0000 C   0  0  0  0  0  0  0  0  0  0  0  0
    3.7321    3.7500    0.0000 C   0  0  0  0  0  0  0  0  0  0  0  0
    8.0622   -3.7500    0.0000 C   0  0  0  0  0  0  0  0  0  0  0  0
    8.9282    3.7500    0.0000 C   0  0  0  0  0  0  0  0  0  0  0  0
   10.6603    0.7500    0.0000 C   0  0  0  0  0  0  0  0  0  0  0  0
   16.7224    4.2500    0.0000 C   0  0  0  0  0  0  0  0  0  0  0  0
    2.8660    4.2500    0.0000 C   0  0  0  0  0  0  0  0  0  0  0  0
    8.0622   -4.7500    0.0000 C   0  0  0  0  0  0  0  0  0  0  0  0
   17.5885    3.7500    0.0000 C   0  0  0  0  0  0  0  0  0  0  0  0
   15.8564    3.7500    0.0000 C   0  0  0  0  0  0  0  0  0  0  0  0
   18.4545    4.2500    0.0000 C   0  0  0  0  0  0  0  0  0  0  0  0
   12.3923    3.7500    0.0000 C   0  0  0  0  0  0  0  0  0  0  0  0
   14.9904    4.2500    0.0000 C   0  0  0  0  0  0  0  0  0  0  0  0
   11.5263    4.2500    0.0000 C   0  0  0  0  0  0  0  0  0  0  0  0
   12.3923    2.7500    0.0000 C   0  0  0  0  0  0  0  0  0  0  0  0
   19.3205    3.7500    0.0000 C   0  0  0  0  0  0  0  0  0  0  0  0
    9.7942    4.2500    0.0000 C   0  0  0  0  0  0  0  0  0  0  0  0
   11.5263    1.2500    0.0000 C   0  0  0  0  0  0  0  0  0  0  0  0
    2.0000    3.7500    0.0000 C   0  0  0  0  0  0  0  0  0  0  0  0
    7.1962   -5.2500    0.0000 C   0  0  0  0  0  0  0  0  0  0  0  0
   14.1244    3.7500    0.0000 C   0  0  0  0  0  0  0  0  0  0  0  0
   20.1865    4.2500    0.0000 C   0  0  0  0  0  0  0  0  0  0  0  0
    6.7287    4.7250    0.0000 H   0  0  0  0  0  0  0  0  0  0  0  0
    5.9316    4.7250    0.0000 H   0  0  0  0  0  0  0  0  0  0  0  0
   10.0063   -2.3326    0.0000 H   0  0  0  0  0  0  0  0  0  0  0  0
   10.4048   -1.6423    0.0000 H   0  0  0  0  0  0  0  0  0  0  0  0
    5.0656    3.2751    0.0000 H   0  0  0  0  0  0  0  0  0  0  0  0
    5.8626    3.2751    0.0000 H   0  0  0  0  0  0  0  0  0  0  0  0
    8.7162   -1.6674    0.0000 H   0  0  0  0  0  0  0  0  0  0  0  0
    8.3176   -2.3577    0.0000 H   0  0  0  0  0  0  0  0  0  0  0  0
    6.7976    3.2751    0.0000 H   0  0  0  0  0  0  0  0  0  0  0  0
    7.5947    3.2751    0.0000 H   0  0  0  0  0  0  0  0  0  0  0  0
    9.5822   -0.1674    0.0000 H   0  0  0  0  0  0  0  0  0  0  0  0
    9.1837   -0.8577    0.0000 H   0  0  0  0  0  0  0  0  0  0  0  0
    4.9966    4.7250    0.0000 H   0  0  0  0  0  0  0  0  0  0  0  0
    4.1996    4.7250    0.0000 H   0  0  0  0  0  0  0  0  0  0  0  0
    9.1403   -3.8326    0.0000 H   0  0  0  0  0  0  0  0  0  0  0  0
    9.5388   -3.1423    0.0000 H   0  0  0  0  0  0  0  0  0  0  0  0
    8.4607    4.7250    0.0000 H   0  0  0  0  0  0  0  0  0  0  0  0
    7.6637    4.7250    0.0000 H   0  0  0  0  0  0  0  0  0  0  0  0
   10.8723   -0.8326    0.0000 H   0  0  0  0  0  0  0  0  0  0  0  0
   11.2708   -0.1423    0.0000 H   0  0  0  0  0  0  0  0  0  0  0  0
    3.3335    3.2751    0.0000 H   0  0  0  0  0  0  0  0  0  0  0  0
    4.1306    3.2751    0.0000 H   0  0  0  0  0  0  0  0  0  0  0  0
    7.8501   -3.1674    0.0000 H   0  0  0  0  0  0  0  0  0  0  0  0
    7.4516   -3.8577    0.0000 H   0  0  0  0  0  0  0  0  0  0  0  0
    8.5297    3.2751    0.0000 H   0  0  0  0  0  0  0  0  0  0  0  0
    9.3267    3.2751    0.0000 H   0  0  0  0  0  0  0  0  0  0  0  0
   10.4482    1.3326    0.0000 H   0  0  0  0  0  0  0  0  0  0  0  0
   10.0497    0.6423    0.0000 H   0  0  0  0  0  0  0  0  0  0  0  0
   17.1210    4.7250    0.0000 H   0  0  0  0  0  0  0  0  0  0  0  0
   16.3239    4.7250    0.0000 H   0  0  0  0  0  0  0  0  0  0  0  0
   17.1899    3.2751    0.0000 H   0  0  0  0  0  0  0  0  0  0  0  0
   17.9870    3.2751    0.0000 H   0  0  0  0  0  0  0  0  0  0  0  0
    3.2646    4.7250    0.0000 H   0  0  0  0  0  0  0  0  0  0  0  0
    2.4675    4.7250    0.0000 H   0  0  0  0  0  0  0  0  0  0  0  0
    8.2742   -5.3326    0.0000 H   0  0  0  0  0  0  0  0  0  0  0  0
    8.6728   -4.6423    0.0000 H   0  0  0  0  0  0  0  0  0  0  0  0
   15.4579    3.2751    0.0000 H   0  0  0  0  0  0  0  0  0  0  0  0
   16.2549    3.2751    0.0000 H   0  0  0  0  0  0  0  0  0  0  0  0
   18.8530    4.7250    0.0000 H   0  0  0  0  0  0  0  0  0  0  0  0
   18.0560    4.7250    0.0000 H   0  0  0  0  0  0  0  0  0  0  0  0
   12.3923    4.3700    0.0000 H   0  0  0  0  0  0  0  0  0  0  0  0
   15.3889    4.7250    0.0000 H   0  0  0  0  0  0  0  0  0  0  0  0
   14.5919    4.7250    0.0000 H   0  0  0  0  0  0  0  0  0  0  0  0
   11.9248    4.7250    0.0000 H   0  0  0  0  0  0  0  0  0  0  0  0
   11.1278    4.7250    0.0000 H   0  0  0  0  0  0  0  0  0  0  0  0
   12.6044    2.1674    0.0000 H   0  0  0  0  0  0  0  0  0  0  0  0
   13.0029    2.8577    0.0000 H   0  0  0  0  0  0  0  0  0  0  0  0
   18.9220    3.2751    0.0000 H   0  0  0  0  0  0  0  0  0  0  0  0
   19.7190    3.2751    0.0000 H   0  0  0  0  0  0  0  0  0  0  0  0
    1.6900    4.2869    0.0000 H   0  0  0  0  0  0  0  0  0  0  0  0
    1.4631    3.4400    0.0000 H   0  0  0  0  0  0  0  0  0  0  0  0
    2.3100    3.2131    0.0000 H   0  0  0  0  0  0  0  0  0  0  0  0
    6.8862   -4.7131    0.0000 H   0  0  0  0  0  0  0  0  0  0  0  0
    6.6592   -5.5600    0.0000 H   0  0  0  0  0  0  0  0  0  0  0  0
    7.5062   -5.7869    0.0000 H   0  0  0  0  0  0  0  0  0  0  0  0
   20.4965    3.7131    0.0000 H   0  0  0  0  0  0  0  0  0  0  0  0
   20.7235    4.5600    0.0000 H   0  0  0  0  0  0  0  0  0  0  0  0
   19.8765    4.7869    0.0000 H   0  0  0  0  0  0  0  0  0  0  0  0
  1 27  1  0  0  0  0
  1 36  1  0  0  0  0
  2 29  1  0  0  0  0
  2 32  1  0  0  0  0
  3 30  1  0  0  0  0
  3 33  1  0  0  0  0
  4 32  2  0  0  0  0
  5 33  2  0  0  0  0
  6 36  2  0  0  0  0
  7  9  1  0  0  0  0
  7 11  1  0  0  0  0
  7 38  1  0  0  0  0
  7 39  1  0  0  0  0
  8 10  1  0  0  0  0
  8 12  1  0  0  0  0
  8 40  1  0  0  0  0
  8 41  1  0  0  0  0
  9 13  1  0  0  0  0
  9 42  1  0  0  0  0
  9 43  1  0  0  0  0
 10 14  1  0  0  0  0
 10 44  1  0  0  0  0
 10 45  1  0  0  0  0
 11 15  1  0  0  0  0
 11 46  1  0  0  0  0
 11 47  1  0  0  0  0
 12 16  1  0  0  0  0
 12 48  1  0  0  0  0
 12 49  1  0  0  0  0
 13 17  1  0  0  0  0
 13 50  1  0  0  0  0
 13 51  1  0  0  0  0
 14 18  1  0  0  0  0
 14 52  1  0  0  0  0
 14 53  1  0  0  0  0
 15 19  1  0  0  0  0
 15 54  1  0  0  0  0
 15 55  1  0  0  0  0
 16 20  1  0  0  0  0
 16 56  1  0  0  0  0
 16 57  1  0  0  0  0
 17 22  1  0  0  0  0
 17 58  1  0  0  0  0
 17 59  1  0  0  0  0
 18 23  1  0  0  0  0
 18 60  1  0  0  0  0
 18 61  1  0  0  0  0
 19 32  1  0  0  0  0
 19 62  1  0  0  0  0
 19 63  1  0  0  0  0
 20 33  1  0  0  0  0
 20 64  1  0  0  0  0
 20 65  1  0  0  0  0
 21 24  1  0  0  0  0
 21 25  1  0  0  0  0
 21 66  1  0  0  0  0
 21 67  1  0  0  0  0
 22 34  1  0  0  0  0
 22 70  1  0  0  0  0
 22 71  1  0  0  0  0
 23 35  1  0  0  0  0
 23 72  1  0  0  0  0
 23 73  1  0  0  0  0
 24 26  1  0  0  0  0
 24 68  1  0  0  0  0
 24 69  1  0  0  0  0
 25 28  1  0  0  0  0
 25 74  1  0  0  0  0
 25 75  1  0  0  0  0
 26 31  1  0  0  0  0
 26 76  1  0  0  0  0
 26 77  1  0  0  0  0
 27 29  1  0  0  0  0
 27 30  1  0  0  0  0
 27 78  1  0  0  0  0
 28 36  1  0  0  0  0
 28 79  1  0  0  0  0
 28 80  1  0  0  0  0
 29 81  1  0  0  0  0
 29 82  1  0  0  0  0
 30 83  1  0  0  0  0
 30 84  1  0  0  0  0
 31 37  1  0  0  0  0
 31 85  1  0  0  0  0
 31 86  1  0  0  0  0
 34 87  1  0  0  0  0
 34 88  1  0  0  0  0
 34 89  1  0  0  0  0
 35 90  1  0  0  0  0
 35 91  1  0  0  0  0
 35 92  1  0  0  0  0
 37 93  1  0  0  0  0
 37 94  1  0  0  0  0
 37 95  1  0  0  0  0
M  END
> <PUBCHEM_COMPOUND_CID>
10186592

> <PUBCHEM_COMPOUND_CANONICALIZED>
1

> <PUBCHEM_CACTVS_COMPLEXITY>
514

> <PUBCHEM_CACTVS_HBOND_ACCEPTOR>
6

> <PUBCHEM_CACTVS_HBOND_DONOR>
0

> <PUBCHEM_CACTVS_ROTATABLE_BOND>
30

> <PUBCHEM_CACTVS_SUBSKEYS>
AAADcfB4OAAAAAAAAAAAAAAAAAAAAAAAAAAAAAAAAAAAAAAAAAAAGgAAAAAACBSggAICCAAABAAIAACQCAAAAAAAAAAAAAEAAAABABIAAAACAAAFAAACAAGIyKCAAAAAAAAAAAAAAAAAAAAAAAAAAAAAAA==

> <PUBCHEM_IUPAC_OPENEYE_NAME>
(3-decanoyloxy-2-octanoyloxy-propyl) decanoate

> <PUBCHEM_IUPAC_CAS_NAME>
decanoic acid [3-(1-oxodecoxy)-2-(1-oxooctoxy)propyl] ester

> <PUBCHEM_IUPAC_NAME_MARKUP>
(3-decanoyloxy-2-octanoyloxypropyl) decanoate

> <PUBCHEM_IUPAC_NAME>
(3-decanoyloxy-2-octanoyloxypropyl) decanoate

> <PUBCHEM_IUPAC_SYSTEMATIC_NAME>
(3-decanoyloxy-2-octanoyloxy-propyl) decanoate

> <PUBCHEM_IUPAC_TRADITIONAL_NAME>
capric acid (3-capryloxy-2-caprylyloxy-propyl) ester

> <PUBCHEM_IUPAC_INCHI>
InChI=1S/C31H58O6/c1-4-7-10-13-15-18-20-23-29(32)35-26-28(37-31(34)25-22-17-12-9-6-3)27-36-30(33)24-21-19-16-14-11-8-5-2/h28H,4-27H2,1-3H3

> <PUBCHEM_IUPAC_INCHIKEY>
CYHAOTQWWRWBAF-UHFFFAOYSA-N

> <PUBCHEM_XLOGP3_AA>
11.1

> <PUBCHEM_EXACT_MASS>
526.42333957

> <PUBCHEM_MOLECULAR_FORMULA>
C31H58O6

> <PUBCHEM_MOLECULAR_WEIGHT>
526.8

> <PUBCHEM_SMILES>
CCCCCCCCCC(=O)OCC(COC(=O)CCCCCCCCC)OC(=O)CCCCCCC

> <PUBCHEM_CONNECTIVITY_SMILES>
CCCCCCCCCC(=O)OCC(COC(=O)CCCCCCCCC)OC(=O)CCCCCCC

> <PUBCHEM_CACTVS_TPSA>
78.9

> <PUBCHEM_MONOISOTOPIC_WEIGHT>
526.42333957

> <PUBCHEM_TOTAL_CHARGE>
0

> <PUBCHEM_HEAVY_ATOM_COUNT>
37

> <PUBCHEM_ATOM_DEF_STEREO_COUNT>
0

> <PUBCHEM_ATOM_UDEF_STEREO_COUNT>
0

> <PUBCHEM_BOND_DEF_STEREO_COUNT>
0

> <PUBCHEM_BOND_UDEF_STEREO_COUNT>
0

> <PUBCHEM_ISOTOPIC_ATOM_COUNT>
0

> <PUBCHEM_COMPONENT_COUNT>
1

> <PUBCHEM_CACTVS_TAUTO_COUNT>
-1

> <PUBCHEM_COORDINATE_TYPE>
1
5
255

$$$$
