101995250
  -OEChem-05122608312D

 56 55  0     1  0  0  0  0  0999 V2000
    4.5981   -5.5950    0.0000 O   0  0  0  0  0  0  0  0  0  0  0  0
    3.7320    4.9050    0.0000 O   0  0  0  0  0  0  0  0  0  0  0  0
    5.4641    4.9050    0.0000 O   0  0  0  0  0  0  0  0  0  0  0  0
    6.3301    1.4050    0.0000 C   0  0  0  0  0  0  0  0  0  0  0  0
    6.3301    0.4050    0.0000 C   0  0  0  0  0  0  0  0  0  0  0  0
    5.4641    1.9050    0.0000 C   0  0  0  0  0  0  0  0  0  0  0  0
    7.1962   -0.0950    0.0000 C   0  0  0  0  0  0  0  0  0  0  0  0
    5.4641    2.9050    0.0000 C   0  0  0  0  0  0  0  0  0  0  0  0
    7.1962   -1.0950    0.0000 C   0  0  0  0  0  0  0  0  0  0  0  0
    4.5981   -4.5950    0.0000 C   0  0  2  0  0  0  0  0  0  0  0  0
    4.5981    3.4050    0.0000 C   0  0  0  0  0  0  0  0  0  0  0  0
    3.7320   -4.0950    0.0000 C   0  0  0  0  0  0  0  0  0  0  0  0
    5.4641   -4.0950    0.0000 C   0  0  0  0  0  0  0  0  0  0  0  0
    2.8660   -4.5950    0.0000 C   0  0  0  0  0  0  0  0  0  0  0  0
    8.0622   -1.5950    0.0000 C   0  0  0  0  0  0  0  0  0  0  0  0
    6.3301   -4.5950    0.0000 C   0  0  0  0  0  0  0  0  0  0  0  0
    7.1962   -3.0950    0.0000 C   0  0  0  0  0  0  0  0  0  0  0  0
    8.0622   -2.5950    0.0000 C   0  0  0  0  0  0  0  0  0  0  0  0
    4.5981    4.4050    0.0000 C   0  0  0  0  0  0  0  0  0  0  0  0
    7.1962   -4.0950    0.0000 C   0  0  0  0  0  0  0  0  0  0  0  0
    2.0000   -4.0950    0.0000 C   0  0  0  0  0  0  0  0  0  0  0  0
    3.7320    5.9050    0.0000 C   0  0  0  0  0  0  0  0  0  0  0  0
    6.9407    1.2973    0.0000 H   0  0  0  0  0  0  0  0  0  0  0  0
    6.5422    1.9876    0.0000 H   0  0  0  0  0  0  0  0  0  0  0  0
    5.7196    0.5127    0.0000 H   0  0  0  0  0  0  0  0  0  0  0  0
    6.1181   -0.1776    0.0000 H   0  0  0  0  0  0  0  0  0  0  0  0
    4.8535    2.0127    0.0000 H   0  0  0  0  0  0  0  0  0  0  0  0
    5.2520    1.3224    0.0000 H   0  0  0  0  0  0  0  0  0  0  0  0
    7.8067   -0.2027    0.0000 H   0  0  0  0  0  0  0  0  0  0  0  0
    7.4082    0.4876    0.0000 H   0  0  0  0  0  0  0  0  0  0  0  0
    6.0747    2.7973    0.0000 H   0  0  0  0  0  0  0  0  0  0  0  0
    5.6762    3.4876    0.0000 H   0  0  0  0  0  0  0  0  0  0  0  0
    6.5856   -0.9873    0.0000 H   0  0  0  0  0  0  0  0  0  0  0  0
    6.9841   -1.6776    0.0000 H   0  0  0  0  0  0  0  0  0  0  0  0
    5.1350   -4.9050    0.0000 H   0  0  0  0  0  0  0  0  0  0  0  0
    4.1306   -3.6200    0.0000 H   0  0  0  0  0  0  0  0  0  0  0  0
    3.3335   -3.6200    0.0000 H   0  0  0  0  0  0  0  0  0  0  0  0
    3.9875    3.5127    0.0000 H   0  0  0  0  0  0  0  0  0  0  0  0
    4.3860    2.8224    0.0000 H   0  0  0  0  0  0  0  0  0  0  0  0
    5.8626   -3.6200    0.0000 H   0  0  0  0  0  0  0  0  0  0  0  0
    5.0656   -3.6200    0.0000 H   0  0  0  0  0  0  0  0  0  0  0  0
    2.4675   -5.0700    0.0000 H   0  0  0  0  0  0  0  0  0  0  0  0
    3.2646   -5.0700    0.0000 H   0  0  0  0  0  0  0  0  0  0  0  0
    8.5991   -1.2850    0.0000 H   0  0  0  0  0  0  0  0  0  0  0  0
    6.3301   -5.2150    0.0000 H   0  0  0  0  0  0  0  0  0  0  0  0
    6.9841   -2.5124    0.0000 H   0  0  0  0  0  0  0  0  0  0  0  0
    6.5856   -3.2027    0.0000 H   0  0  0  0  0  0  0  0  0  0  0  0
    8.5991   -2.9050    0.0000 H   0  0  0  0  0  0  0  0  0  0  0  0
    7.7331   -4.4050    0.0000 H   0  0  0  0  0  0  0  0  0  0  0  0
    2.3100   -3.5581    0.0000 H   0  0  0  0  0  0  0  0  0  0  0  0
    1.4631   -3.7850    0.0000 H   0  0  0  0  0  0  0  0  0  0  0  0
    1.6900   -4.6319    0.0000 H   0  0  0  0  0  0  0  0  0  0  0  0
    4.0611   -5.9050    0.0000 H   0  0  0  0  0  0  0  0  0  0  0  0
    4.3520    5.9050    0.0000 H   0  0  0  0  0  0  0  0  0  0  0  0
    3.7320    6.5250    0.0000 H   0  0  0  0  0  0  0  0  0  0  0  0
    3.1120    5.9050    0.0000 H   0  0  0  0  0  0  0  0  0  0  0  0
 10  1  1  6  0  0  0
  1 53  1  0  0  0  0
  2 19  1  0  0  0  0
  2 22  1  0  0  0  0
  3 19  2  0  0  0  0
  4  5  1  0  0  0  0
  4  6  1  0  0  0  0
  4 23  1  0  0  0  0
  4 24  1  0  0  0  0
  5  7  1  0  0  0  0
  5 25  1  0  0  0  0
  5 26  1  0  0  0  0
  6  8  1  0  0  0  0
  6 27  1  0  0  0  0
  6 28  1  0  0  0  0
  7  9  1  0  0  0  0
  7 29  1  0  0  0  0
  7 30  1  0  0  0  0
  8 11  1  0  0  0  0
  8 31  1  0  0  0  0
  8 32  1  0  0  0  0
  9 15  1  0  0  0  0
  9 33  1  0  0  0  0
  9 34  1  0  0  0  0
 10 12  1  0  0  0  0
 10 13  1  0  0  0  0
 10 35  1  0  0  0  0
 11 19  1  0  0  0  0
 11 38  1  0  0  0  0
 11 39  1  0  0  0  0
 12 14  1  0  0  0  0
 12 36  1  0  0  0  0
 12 37  1  0  0  0  0
 13 16  1  0  0  0  0
 13 40  1  0  0  0  0
 13 41  1  0  0  0  0
 14 21  1  0  0  0  0
 14 42  1  0  0  0  0
 14 43  1  0  0  0  0
 15 18  2  0  0  0  0
 15 44  1  0  0  0  0
 16 20  2  0  0  0  0
 16 45  1  0  0  0  0
 17 18  1  0  0  0  0
 17 20  1  0  0  0  0
 17 46  1  0  0  0  0
 17 47  1  0  0  0  0
 18 48  1  0  0  0  0
 20 49  1  0  0  0  0
 21 50  1  0  0  0  0
 21 51  1  0  0  0  0
 21 52  1  0  0  0  0
 22 54  1  0  0  0  0
 22 55  1  0  0  0  0
 22 56  1  0  0  0  0
M  END
> <PUBCHEM_COMPOUND_CID>
101995250

> <PUBCHEM_COMPOUND_CANONICALIZED>
1

> <PUBCHEM_CACTVS_COMPLEXITY>
308

> <PUBCHEM_CACTVS_HBOND_ACCEPTOR>
3

> <PUBCHEM_CACTVS_HBOND_DONOR>
1

> <PUBCHEM_CACTVS_ROTATABLE_BOND>
15

> <PUBCHEM_CACTVS_SUBSKEYS>
AAADcfB4MAAAAAAAAAAAAAAAAAAAAAAAAAAAAAAAAAAAAAAAAAAAGgAACAAACBSggAICCAAABgCIACDSCAAAAAAgAAAICAEAAAgAEBIAAQAAQAAEwAAIAAOIyKCAAAAAAAAAAAAAAAAAAAAAAAAAAAAAAA==

> <PUBCHEM_IUPAC_OPENEYE_NAME>
methyl (9Z,12Z,15R)-15-hydroxyoctadeca-9,12-dienoate

> <PUBCHEM_IUPAC_CAS_NAME>
(9Z,12Z,15R)-15-hydroxyoctadeca-9,12-dienoic acid methyl ester

> <PUBCHEM_IUPAC_NAME_MARKUP>
methyl (9<I>Z</I>,12<I>Z</I>,15<I>R</I>)-15-hydroxyoctadeca-9,12-dienoate

> <PUBCHEM_IUPAC_NAME>
methyl (9Z,12Z,15R)-15-hydroxyoctadeca-9,12-dienoate

> <PUBCHEM_IUPAC_SYSTEMATIC_NAME>
methyl (9Z,12Z,15R)-15-oxidanyloctadeca-9,12-dienoate

> <PUBCHEM_IUPAC_TRADITIONAL_NAME>
(9Z,12Z,15R)-15-hydroxyoctadeca-9,12-dienoic acid methyl ester

> <PUBCHEM_IUPAC_INCHI>
InChI=1S/C19H34O3/c1-3-15-18(20)16-13-11-9-7-5-4-6-8-10-12-14-17-19(21)22-2/h5,7,11,13,18,20H,3-4,6,8-10,12,14-17H2,1-2H3/b7-5-,13-11-/t18-/m1/s1

> <PUBCHEM_IUPAC_INCHIKEY>
NKSSFRCNBLNXBF-YEVIIJCLSA-N

> <PUBCHEM_XLOGP3_AA>
5.4

> <PUBCHEM_EXACT_MASS>
310.25079494

> <PUBCHEM_MOLECULAR_FORMULA>
C19H34O3

> <PUBCHEM_MOLECULAR_WEIGHT>
310.5

> <PUBCHEM_SMILES>
CCC[C@H](C/C=C\C/C=C\CCCCCCCC(=O)OC)O

> <PUBCHEM_CONNECTIVITY_SMILES>
CCCC(CC=CCC=CCCCCCCCC(=O)OC)O

> <PUBCHEM_CACTVS_TPSA>
46.5

> <PUBCHEM_MONOISOTOPIC_WEIGHT>
310.25079494

> <PUBCHEM_TOTAL_CHARGE>
0

> <PUBCHEM_HEAVY_ATOM_COUNT>
22

> <PUBCHEM_ATOM_DEF_STEREO_COUNT>
1

> <PUBCHEM_ATOM_UDEF_STEREO_COUNT>
0

> <PUBCHEM_BOND_DEF_STEREO_COUNT>
2

> <PUBCHEM_BOND_UDEF_STEREO_COUNT>
0

> <PUBCHEM_ISOTOPIC_ATOM_COUNT>
0

> <PUBCHEM_COMPONENT_COUNT>
1

> <PUBCHEM_CACTVS_TAUTO_COUNT>
-1

> <PUBCHEM_COORDINATE_TYPE>
1
5
255

> <PUBCHEM_BONDANNOTATIONS>
10  1  6

$$$$
