102118266
  -OEChem-05122609522D

 88 93  0     1  0  0  0  0  0999 V2000
    5.5318   -2.5281    0.0000 O   0  0  0  0  0  0  0  0  0  0  0  0
    4.6497   -3.0623    0.0000 O   0  0  0  0  0  0  0  0  0  0  0  0
    2.8680   -2.0518    0.0000 O   0  0  0  0  0  0  0  0  0  0  0  0
    4.6497    1.0069    0.0000 O   0  0  0  0  0  0  0  0  0  0  0  0
    7.3277    2.5274    0.0000 O   0  0  0  0  0  0  0  0  0  0  0  0
   11.1303    1.7279    0.0000 O   0  0  0  0  0  0  0  0  0  0  0  0
    2.9177   -3.0823    0.0000 O   0  0  0  0  0  0  0  0  0  0  0  0
    8.2053    4.0207    0.0000 O   0  0  0  0  0  0  0  0  0  0  0  0
   12.7724    1.1772    0.0000 O   0  0  0  0  0  0  0  0  0  0  0  0
    5.5320   -1.5277    0.0000 C   0  0  1  0  0  0  0  0  0  0  0  0
    5.5320   -0.5277    0.0000 C   0  0  1  0  0  0  0  0  0  0  0  0
    7.2641   -0.5277    0.0000 C   0  0  2  0  0  0  0  0  0  0  0  0
    6.3981   -0.0277    0.0000 C   0  0  2  0  0  0  0  0  0  0  0  0
    6.3981   -2.0277    0.0000 C   0  0  1  0  0  0  0  0  0  0  0  0
    8.1741   -0.0208    0.0000 C   0  0  1  0  0  0  0  0  0  0  0  0
    8.1821    1.0208    0.0000 C   0  0  1  0  0  0  0  0  0  0  0  0
    7.2641   -1.5277    0.0000 C   0  0  0  0  0  0  0  0  0  0  0  0
    6.3820    1.0138    0.0000 C   0  0  0  0  0  0  0  0  0  0  0  0
    9.1702    1.3306    0.0000 C   0  0  2  0  0  0  0  0  0  0  0  0
    7.2800    1.5416    0.0000 C   0  0  0  0  0  0  0  0  0  0  0  0
    4.6381   -2.0624    0.0000 C   0  0  2  0  0  0  0  0  0  0  0  0
    9.1572   -0.3459    0.0000 C   0  0  0  0  0  0  0  0  0  0  0  0
    9.7716    0.4877    0.0000 C   0  0  0  0  0  0  0  0  0  0  0  0
    4.6381    0.0070    0.0000 C   0  0  0  0  0  0  0  0  0  0  0  0
    5.5320    0.4723    0.0000 C   0  0  0  0  0  0  0  0  0  0  0  0
    3.7320   -1.5485    0.0000 C   0  0  3  0  0  0  0  0  0  0  0  0
    8.1898    2.0207    0.0000 C   0  0  0  0  0  0  0  0  0  0  0  0
    3.7320   -0.5069    0.0000 C   0  0  0  0  0  0  0  0  0  0  0  0
    9.4881    2.2787    0.0000 C   0  0  1  0  0  0  0  0  0  0  0  0
   10.4682    2.4773    0.0000 C   0  0  1  0  0  0  0  0  0  0  0  0
    8.8260    3.0281    0.0000 C   0  0  0  0  0  0  0  0  0  0  0  0
   10.7862    3.4254    0.0000 C   0  0  0  0  0  0  0  0  0  0  0  0
    3.7895   -3.5723    0.0000 C   0  0  0  0  0  0  0  0  0  0  0  0
    2.0000   -1.5552    0.0000 C   0  0  0  0  0  0  0  0  0  0  0  0
    7.3354    3.5274    0.0000 C   0  0  0  0  0  0  0  0  0  0  0  0
   11.7663    3.6241    0.0000 C   0  0  0  0  0  0  0  0  0  0  0  0
    3.8010   -4.5722    0.0000 C   0  0  0  0  0  0  0  0  0  0  0  0
   12.1104    1.9266    0.0000 C   0  0  0  0  0  0  0  0  0  0  0  0
   12.4283    2.8747    0.0000 C   0  0  0  0  0  0  0  0  0  0  0  0
    6.4733    4.0340    0.0000 C   0  0  0  0  0  0  0  0  0  0  0  0
   12.0842    4.5722    0.0000 C   0  0  0  0  0  0  0  0  0  0  0  0
   13.4084    3.0733    0.0000 C   0  0  0  0  0  0  0  0  0  0  0  0
    7.9969   -0.9584    0.0000 H   0  0  0  0  0  0  0  0  0  0  0  0
    7.1309    0.4030    0.0000 H   0  0  0  0  0  0  0  0  0  0  0  0
    6.8232   -2.7638    0.0000 H   0  0  0  0  0  0  0  0  0  0  0  0
    8.2543   -0.8671    0.0000 H   0  0  0  0  0  0  0  0  0  0  0  0
    7.4762   -2.1103    0.0000 H   0  0  0  0  0  0  0  0  0  0  0  0
    7.8747   -1.4200    0.0000 H   0  0  0  0  0  0  0  0  0  0  0  0
    6.1640    1.5942    0.0000 H   0  0  0  0  0  0  0  0  0  0  0  0
    5.7729    0.8983    0.0000 H   0  0  0  0  0  0  0  0  0  0  0  0
   10.0109    1.4560    0.0000 H   0  0  0  0  0  0  0  0  0  0  0  0
    7.6774    2.0175    0.0000 H   0  0  0  0  0  0  0  0  0  0  0  0
    6.8791    2.0145    0.0000 H   0  0  0  0  0  0  0  0  0  0  0  0
    4.1042   -2.3775    0.0000 H   0  0  0  0  0  0  0  0  0  0  0  0
    8.9018   -0.9108    0.0000 H   0  0  0  0  0  0  0  0  0  0  0  0
    9.6922   -0.6592    0.0000 H   0  0  0  0  0  0  0  0  0  0  0  0
   10.2292    0.0694    0.0000 H   0  0  0  0  0  0  0  0  0  0  0  0
   10.2356    0.8988    0.0000 H   0  0  0  0  0  0  0  0  0  0  0  0
    6.1520    0.4723    0.0000 H   0  0  0  0  0  0  0  0  0  0  0  0
    5.5320    1.0923    0.0000 H   0  0  0  0  0  0  0  0  0  0  0  0
    4.9120    0.4723    0.0000 H   0  0  0  0  0  0  0  0  0  0  0  0
    3.7356   -2.1685    0.0000 H   0  0  0  0  0  0  0  0  0  0  0  0
    8.7996    1.9084    0.0000 H   0  0  0  0  0  0  0  0  0  0  0  0
    8.4064    2.6017    0.0000 H   0  0  0  0  0  0  0  0  0  0  0  0
    3.5230    0.0768    0.0000 H   0  0  0  0  0  0  0  0  0  0  0  0
    3.1212   -0.6130    0.0000 H   0  0  0  0  0  0  0  0  0  0  0  0
    8.8805    2.1555    0.0000 H   0  0  0  0  0  0  0  0  0  0  0  0
   10.1979    1.6714    0.0000 H   0  0  0  0  0  0  0  0  0  0  0  0
    9.2907    3.4386    0.0000 H   0  0  0  0  0  0  0  0  0  0  0  0
    8.4156    3.4927    0.0000 H   0  0  0  0  0  0  0  0  0  0  0  0
    8.3614    2.6176    0.0000 H   0  0  0  0  0  0  0  0  0  0  0  0
   10.7704    4.0452    0.0000 H   0  0  0  0  0  0  0  0  0  0  0  0
   10.1731    3.5175    0.0000 H   0  0  0  0  0  0  0  0  0  0  0  0
    2.3079   -1.0170    0.0000 H   0  0  0  0  0  0  0  0  0  0  0  0
    1.4619   -1.2472    0.0000 H   0  0  0  0  0  0  0  0  0  0  0  0
    1.6921   -2.0933    0.0000 H   0  0  0  0  0  0  0  0  0  0  0  0
    3.1811   -4.5794    0.0000 H   0  0  0  0  0  0  0  0  0  0  0  0
    3.8082   -5.1922    0.0000 H   0  0  0  0  0  0  0  0  0  0  0  0
    4.4210   -4.5650    0.0000 H   0  0  0  0  0  0  0  0  0  0  0  0
    6.7874    4.5686    0.0000 H   0  0  0  0  0  0  0  0  0  0  0  0
    5.9387    4.3482    0.0000 H   0  0  0  0  0  0  0  0  0  0  0  0
    6.1591    3.4995    0.0000 H   0  0  0  0  0  0  0  0  0  0  0  0
   12.6721    4.3750    0.0000 H   0  0  0  0  0  0  0  0  0  0  0  0
   12.2814    5.1600    0.0000 H   0  0  0  0  0  0  0  0  0  0  0  0
   11.4964    4.7694    0.0000 H   0  0  0  0  0  0  0  0  0  0  0  0
   13.5316    2.4657    0.0000 H   0  0  0  0  0  0  0  0  0  0  0  0
   14.0160    3.1965    0.0000 H   0  0  0  0  0  0  0  0  0  0  0  0
   13.2852    3.6810    0.0000 H   0  0  0  0  0  0  0  0  0  0  0  0
 10  1  1  1  0  0  0
  1 14  1  0  0  0  0
 21  2  1  1  0  0  0
  2 33  1  0  0  0  0
  3 26  1  0  0  0  0
  3 34  1  0  0  0  0
  4 24  2  0  0  0  0
  5 27  1  0  0  0  0
  5 35  1  0  0  0  0
  6 30  1  0  0  0  0
  6 38  1  0  0  0  0
  7 33  2  0  0  0  0
  8 35  2  0  0  0  0
  9 38  2  0  0  0  0
 10 11  1  0  0  0  0
 10 14  1  0  0  0  0
 10 21  1  0  0  0  0
 11 13  1  0  0  0  0
 11 24  1  0  0  0  0
 11 25  1  1  0  0  0
 12 13  1  0  0  0  0
 12 15  1  0  0  0  0
 12 17  1  0  0  0  0
 12 43  1  1  0  0  0
 13 18  1  0  0  0  0
 13 44  1  6  0  0  0
 14 17  1  0  0  0  0
 14 45  1  6  0  0  0
 15 16  1  0  0  0  0
 15 22  1  0  0  0  0
 15 46  1  6  0  0  0
 16 19  1  0  0  0  0
 16 20  1  0  0  0  0
 16 27  1  1  0  0  0
 17 47  1  0  0  0  0
 17 48  1  0  0  0  0
 18 20  1  0  0  0  0
 18 49  1  0  0  0  0
 18 50  1  0  0  0  0
 19 23  1  0  0  0  0
 19 29  1  0  0  0  0
 19 51  1  6  0  0  0
 20 52  1  0  0  0  0
 20 53  1  0  0  0  0
 21 26  1  0  0  0  0
 21 54  1  0  0  0  0
 22 23  1  0  0  0  0
 22 55  1  0  0  0  0
 22 56  1  0  0  0  0
 23 57  1  0  0  0  0
 23 58  1  0  0  0  0
 24 28  1  0  0  0  0
 25 59  1  0  0  0  0
 25 60  1  0  0  0  0
 25 61  1  0  0  0  0
 26 28  1  0  0  0  0
 26 62  1  0  0  0  0
 27 63  1  0  0  0  0
 27 64  1  0  0  0  0
 28 65  1  0  0  0  0
 28 66  1  0  0  0  0
 29 30  1  0  0  0  0
 29 31  1  6  0  0  0
 29 67  1  0  0  0  0
 30 32  1  0  0  0  0
 30 68  1  6  0  0  0
 31 69  1  0  0  0  0
 31 70  1  0  0  0  0
 31 71  1  0  0  0  0
 32 36  1  0  0  0  0
 32 72  1  0  0  0  0
 32 73  1  0  0  0  0
 33 37  1  0  0  0  0
 34 74  1  0  0  0  0
 34 75  1  0  0  0  0
 34 76  1  0  0  0  0
 35 40  1  0  0  0  0
 36 39  2  0  0  0  0
 36 41  1  0  0  0  0
 37 77  1  0  0  0  0
 37 78  1  0  0  0  0
 37 79  1  0  0  0  0
 38 39  1  0  0  0  0
 39 42  1  0  0  0  0
 40 80  1  0  0  0  0
 40 81  1  0  0  0  0
 40 82  1  0  0  0  0
 41 83  1  0  0  0  0
 41 84  1  0  0  0  0
 41 85  1  0  0  0  0
 42 86  1  0  0  0  0
 42 87  1  0  0  0  0
 42 88  1  0  0  0  0
M  END
> <PUBCHEM_COMPOUND_CID>
102118266

> <PUBCHEM_COMPOUND_CANONICALIZED>
1

> <PUBCHEM_CACTVS_COMPLEXITY>
1220

> <PUBCHEM_CACTVS_HBOND_ACCEPTOR>
9

> <PUBCHEM_CACTVS_HBOND_DONOR>
0

> <PUBCHEM_CACTVS_ROTATABLE_BOND>
8

> <PUBCHEM_CACTVS_SUBSKEYS>
AAADcfB8PAAAAAAAAAAAAAAAEgAAAYAAAAAwYMEABIAAAGDAAAAAGgAAAAAAD1SggAICCAAABACIAoDQCAAAAAAgAAAACAEAAEgBBBYAIAACEAAF4AAKIQPK7PzPgAAAAAAAAADAAAYQADCAAQAACAAAAA==

> <PUBCHEM_IUPAC_OPENEYE_NAME>
[(1S,2R,6S,7S,9R,11S,12S,15R,16R)-6-acetoxy-15-[(1S)-1-[(2R)-4,5-dimethyl-6-oxo-2,3-dihydropyran-2-yl]ethyl]-5-methoxy-2-methyl-3-oxo-8-oxapentacyclo[9.7.0.02,7.07,9.012,16]octadecan-16-yl]methyl acetate

> <PUBCHEM_IUPAC_CAS_NAME>
acetic acid [(1S,2R,6S,7S,9R,11S,12S,15R,16R)-6-acetyloxy-15-[(1S)-1-[(2R)-4,5-dimethyl-6-oxo-2,3-dihydropyran-2-yl]ethyl]-5-methoxy-2-methyl-3-oxo-8-oxapentacyclo[9.7.0.02,7.07,9.012,16]octadecan-16-yl]methyl ester

> <PUBCHEM_IUPAC_NAME_MARKUP>
[(1<I>S</I>,2<I>R</I>,6<I>S</I>,7<I>S</I>,9<I>R</I>,11<I>S</I>,12<I>S</I>,15<I>R</I>,16<I>R</I>)-6-acetyloxy-15-[(1<I>S</I>)-1-[(2<I>R</I>)-4,5-dimethyl-6-oxo-2,3-dihydropyran-2-yl]ethyl]-5-methoxy-2-methyl-3-oxo-8-oxapentacyclo[9.7.0.0<SUP>2,7</SUP>.0<SUP>7,9</SUP>.0<SUP>12,16</SUP>]octadecan-16-yl]methyl acetate

> <PUBCHEM_IUPAC_NAME>
[(1S,2R,6S,7S,9R,11S,12S,15R,16R)-6-acetyloxy-15-[(1S)-1-[(2R)-4,5-dimethyl-6-oxo-2,3-dihydropyran-2-yl]ethyl]-5-methoxy-2-methyl-3-oxo-8-oxapentacyclo[9.7.0.02,7.07,9.012,16]octadecan-16-yl]methyl acetate

> <PUBCHEM_IUPAC_SYSTEMATIC_NAME>
[(1S,2R,6S,7S,9R,11S,12S,15R,16R)-6-acetyloxy-15-[(1S)-1-[(2R)-4,5-dimethyl-6-oxidanylidene-2,3-dihydropyran-2-yl]ethyl]-5-methoxy-2-methyl-3-oxidanylidene-8-oxapentacyclo[9.7.0.02,7.07,9.012,16]octadecan-16-yl]methyl ethanoate

> <PUBCHEM_IUPAC_TRADITIONAL_NAME>
acetic acid [(1S,2R,6S,7S,9R,11S,12S,15R,16R)-6-acetoxy-3-keto-15-[(1S)-1-[(2R)-6-keto-4,5-dimethyl-2,3-dihydropyran-2-yl]ethyl]-5-methoxy-2-methyl-8-oxapentacyclo[9.7.0.02,7.07,9.012,16]octadecan-16-yl]methyl ester

> <PUBCHEM_IUPAC_INCHI>
InChI=1S/C33H46O9/c1-16-12-25(41-30(37)17(16)2)18(3)22-8-9-24-21-13-28-33(42-28)29(40-20(5)35)26(38-7)14-27(36)31(33,6)23(21)10-11-32(22,24)15-39-19(4)34/h18,21-26,28-29H,8-15H2,1-7H3/t18-,21+,22+,23-,24-,25+,26?,28+,29-,31-,32-,33-/m0/s1

> <PUBCHEM_IUPAC_INCHIKEY>
GTGBDWFVVPPOFL-GRKIQWPPSA-N

> <PUBCHEM_XLOGP3_AA>
3.8

> <PUBCHEM_EXACT_MASS>
586.31418304

> <PUBCHEM_MOLECULAR_FORMULA>
C33H46O9

> <PUBCHEM_MOLECULAR_WEIGHT>
586.7

> <PUBCHEM_SMILES>
CC1=C(C(=O)O[C@H](C1)[C@@H](C)[C@H]2CC[C@@H]3[C@@]2(CC[C@H]4[C@H]3C[C@@H]5[C@]6([C@@]4(C(=O)CC([C@@H]6OC(=O)C)OC)C)O5)COC(=O)C)C

> <PUBCHEM_CONNECTIVITY_SMILES>
CC1=C(C(=O)OC(C1)C(C)C2CCC3C2(CCC4C3CC5C6(C4(C(=O)CC(C6OC(=O)C)OC)C)O5)COC(=O)C)C

> <PUBCHEM_CACTVS_TPSA>
118

> <PUBCHEM_MONOISOTOPIC_WEIGHT>
586.31418304

> <PUBCHEM_TOTAL_CHARGE>
0

> <PUBCHEM_HEAVY_ATOM_COUNT>
42

> <PUBCHEM_ATOM_DEF_STEREO_COUNT>
11

> <PUBCHEM_ATOM_UDEF_STEREO_COUNT>
1

> <PUBCHEM_BOND_DEF_STEREO_COUNT>
0

> <PUBCHEM_BOND_UDEF_STEREO_COUNT>
0

> <PUBCHEM_ISOTOPIC_ATOM_COUNT>
0

> <PUBCHEM_COMPONENT_COUNT>
1

> <PUBCHEM_CACTVS_TAUTO_COUNT>
-1

> <PUBCHEM_COORDINATE_TYPE>
1
5
255

> <PUBCHEM_BONDANNOTATIONS>
10  1  5
11  25  5
12  43  5
13  44  6
14  45  6
15  46  6
16  27  5
19  51  6
21  2  5
29  31  6
26  3  3
30  68  6

$$$$
