102214
  -OEChem-05122609432D

 48 47  0     0  0  0  0  0  0999 V2000
   11.1603   -0.7990    0.0000 F   0  0  0  0  0  0  0  0  0  0  0  0
   10.1603    0.9330    0.0000 F   0  0  0  0  0  0  0  0  0  0  0  0
    9.2942    0.4330    0.0000 F   0  0  0  0  0  0  0  0  0  0  0  0
   10.2942   -1.2990    0.0000 F   0  0  0  0  0  0  0  0  0  0  0  0
   11.0263    1.4330    0.0000 F   0  0  0  0  0  0  0  0  0  0  0  0
   12.0263   -0.2990    0.0000 F   0  0  0  0  0  0  0  0  0  0  0  0
    8.4282   -0.0670    0.0000 F   0  0  0  0  0  0  0  0  0  0  0  0
    9.4282   -1.7990    0.0000 F   0  0  0  0  0  0  0  0  0  0  0  0
   12.8923    0.2010    0.0000 F   0  0  0  0  0  0  0  0  0  0  0  0
   11.8923    1.9330    0.0000 F   0  0  0  0  0  0  0  0  0  0  0  0
    7.5622   -0.5670    0.0000 F   0  0  0  0  0  0  0  0  0  0  0  0
    8.5622   -2.2990    0.0000 F   0  0  0  0  0  0  0  0  0  0  0  0
   13.7583    0.7010    0.0000 F   0  0  0  0  0  0  0  0  0  0  0  0
   12.7583    2.4330    0.0000 F   0  0  0  0  0  0  0  0  0  0  0  0
    6.6962   -1.0670    0.0000 F   0  0  0  0  0  0  0  0  0  0  0  0
    7.6962   -2.7990    0.0000 F   0  0  0  0  0  0  0  0  0  0  0  0
   14.6244    1.2010    0.0000 F   0  0  0  0  0  0  0  0  0  0  0  0
   13.6244    2.9330    0.0000 F   0  0  0  0  0  0  0  0  0  0  0  0
   15.8564    3.0670    0.0000 F   0  0  0  0  0  0  0  0  0  0  0  0
   15.4904    1.7010    0.0000 F   0  0  0  0  0  0  0  0  0  0  0  0
   14.4904    3.4330    0.0000 F   0  0  0  0  0  0  0  0  0  0  0  0
    4.5981   -2.4330    0.0000 O   0  0  0  0  0  0  0  0  0  0  0  0
    3.7321   -0.9330    0.0000 O   0  0  0  0  0  0  0  0  0  0  0  0
   10.6603    0.0670    0.0000 C   0  0  0  0  0  0  0  0  0  0  0  0
    9.7942   -0.4330    0.0000 C   0  0  0  0  0  0  0  0  0  0  0  0
   11.5263    0.5670    0.0000 C   0  0  0  0  0  0  0  0  0  0  0  0
    8.9282   -0.9330    0.0000 C   0  0  0  0  0  0  0  0  0  0  0  0
   12.3923    1.0670    0.0000 C   0  0  0  0  0  0  0  0  0  0  0  0
    8.0622   -1.4330    0.0000 C   0  0  0  0  0  0  0  0  0  0  0  0
   13.2583    1.5670    0.0000 C   0  0  0  0  0  0  0  0  0  0  0  0
    7.1962   -1.9330    0.0000 C   0  0  0  0  0  0  0  0  0  0  0  0
   14.1244    2.0670    0.0000 C   0  0  0  0  0  0  0  0  0  0  0  0
    6.3301   -2.4330    0.0000 C   0  0  0  0  0  0  0  0  0  0  0  0
    5.4641   -1.9330    0.0000 C   0  0  0  0  0  0  0  0  0  0  0  0
   14.9904    2.5670    0.0000 C   0  0  0  0  0  0  0  0  0  0  0  0
    3.7321   -1.9330    0.0000 C   0  0  0  0  0  0  0  0  0  0  0  0
    2.8660   -2.4330    0.0000 C   0  0  0  0  0  0  0  0  0  0  0  0
    2.0000   -1.9330    0.0000 C   0  0  0  0  0  0  0  0  0  0  0  0
    2.8660   -3.4330    0.0000 C   0  0  0  0  0  0  0  0  0  0  0  0
    5.9316   -2.9080    0.0000 H   0  0  0  0  0  0  0  0  0  0  0  0
    6.7287   -2.9080    0.0000 H   0  0  0  0  0  0  0  0  0  0  0  0
    5.8626   -1.4581    0.0000 H   0  0  0  0  0  0  0  0  0  0  0  0
    5.0656   -1.4581    0.0000 H   0  0  0  0  0  0  0  0  0  0  0  0
    2.3100   -1.3961    0.0000 H   0  0  0  0  0  0  0  0  0  0  0  0
    1.4631   -1.6230    0.0000 H   0  0  0  0  0  0  0  0  0  0  0  0
    1.6900   -2.4700    0.0000 H   0  0  0  0  0  0  0  0  0  0  0  0
    2.3291   -3.7430    0.0000 H   0  0  0  0  0  0  0  0  0  0  0  0
    3.4030   -3.7430    0.0000 H   0  0  0  0  0  0  0  0  0  0  0  0
  1 24  1  0  0  0  0
  2 24  1  0  0  0  0
  3 25  1  0  0  0  0
  4 25  1  0  0  0  0
  5 26  1  0  0  0  0
  6 26  1  0  0  0  0
  7 27  1  0  0  0  0
  8 27  1  0  0  0  0
  9 28  1  0  0  0  0
 10 28  1  0  0  0  0
 11 29  1  0  0  0  0
 12 29  1  0  0  0  0
 13 30  1  0  0  0  0
 14 30  1  0  0  0  0
 15 31  1  0  0  0  0
 16 31  1  0  0  0  0
 17 32  1  0  0  0  0
 18 32  1  0  0  0  0
 19 35  1  0  0  0  0
 20 35  1  0  0  0  0
 21 35  1  0  0  0  0
 22 34  1  0  0  0  0
 22 36  1  0  0  0  0
 23 36  2  0  0  0  0
 24 25  1  0  0  0  0
 24 26  1  0  0  0  0
 25 27  1  0  0  0  0
 26 28  1  0  0  0  0
 27 29  1  0  0  0  0
 28 30  1  0  0  0  0
 29 31  1  0  0  0  0
 30 32  1  0  0  0  0
 31 33  1  0  0  0  0
 32 35  1  0  0  0  0
 33 34  1  0  0  0  0
 33 40  1  0  0  0  0
 33 41  1  0  0  0  0
 34 42  1  0  0  0  0
 34 43  1  0  0  0  0
 36 37  1  0  0  0  0
 37 38  1  0  0  0  0
 37 39  2  0  0  0  0
 38 44  1  0  0  0  0
 38 45  1  0  0  0  0
 38 46  1  0  0  0  0
 39 47  1  0  0  0  0
 39 48  1  0  0  0  0
M  END
> <PUBCHEM_COMPOUND_CID>
102214

> <PUBCHEM_COMPOUND_CANONICALIZED>
1

> <PUBCHEM_CACTVS_COMPLEXITY>
929

> <PUBCHEM_CACTVS_HBOND_ACCEPTOR>
23

> <PUBCHEM_CACTVS_HBOND_DONOR>
0

> <PUBCHEM_CACTVS_ROTATABLE_BOND>
13

> <PUBCHEM_CACTVS_SUBSKEYS>
AAADccB4McAAAAAAAAAAAAAAAAAAAAAAAAAAAAAAAAAAAAAAAAAAGwAAAAAADACggBICCAAABACIAgDSCAAAAAAAAAAAAAEAAEAABAIAIQACAAAEAAAAIIGAwKAAAAAAAAAAAAAAAAAAAAAAAAAAAAAAAA==

> <PUBCHEM_IUPAC_OPENEYE_NAME>
3,3,4,4,5,5,6,6,7,7,8,8,9,9,10,10,11,11,12,12,12-henicosafluorododecyl 2-methylprop-2-enoate

> <PUBCHEM_IUPAC_CAS_NAME>
2-methyl-2-propenoic acid 3,3,4,4,5,5,6,6,7,7,8,8,9,9,10,10,11,11,12,12,12-heneicosafluorododecyl ester

> <PUBCHEM_IUPAC_NAME_MARKUP>
3,3,4,4,5,5,6,6,7,7,8,8,9,9,10,10,11,11,12,12,12-henicosafluorododecyl 2-methylprop-2-enoate

> <PUBCHEM_IUPAC_NAME>
3,3,4,4,5,5,6,6,7,7,8,8,9,9,10,10,11,11,12,12,12-henicosafluorododecyl 2-methylprop-2-enoate

> <PUBCHEM_IUPAC_SYSTEMATIC_NAME>
3,3,4,4,5,5,6,6,7,7,8,8,9,9,10,10,11,11,12,12,12-henicosakis(fluoranyl)dodecyl 2-methylprop-2-enoate

> <PUBCHEM_IUPAC_TRADITIONAL_NAME>
2-methylacrylic acid 3,3,4,4,5,5,6,6,7,7,8,8,9,9,10,10,11,11,12,12,12-heneicosafluorododecyl ester

> <PUBCHEM_IUPAC_INCHI>
InChI=1S/C16H9F21O2/c1-5(2)6(38)39-4-3-7(17,18)8(19,20)9(21,22)10(23,24)11(25,26)12(27,28)13(29,30)14(31,32)15(33,34)16(35,36)37/h1,3-4H2,2H3

> <PUBCHEM_IUPAC_INCHIKEY>
FQHLOOOXLDQLPF-UHFFFAOYSA-N

> <PUBCHEM_XLOGP3_AA>
8.6

> <PUBCHEM_EXACT_MASS>
632.0267209

> <PUBCHEM_MOLECULAR_FORMULA>
C16H9F21O2

> <PUBCHEM_MOLECULAR_WEIGHT>
632.21

> <PUBCHEM_SMILES>
CC(=C)C(=O)OCCC(C(C(C(C(C(C(C(C(C(F)(F)F)(F)F)(F)F)(F)F)(F)F)(F)F)(F)F)(F)F)(F)F)(F)F

> <PUBCHEM_CONNECTIVITY_SMILES>
CC(=C)C(=O)OCCC(C(C(C(C(C(C(C(C(C(F)(F)F)(F)F)(F)F)(F)F)(F)F)(F)F)(F)F)(F)F)(F)F)(F)F

> <PUBCHEM_CACTVS_TPSA>
26.3

> <PUBCHEM_MONOISOTOPIC_WEIGHT>
632.0267209

> <PUBCHEM_TOTAL_CHARGE>
0

> <PUBCHEM_HEAVY_ATOM_COUNT>
39

> <PUBCHEM_ATOM_DEF_STEREO_COUNT>
0

> <PUBCHEM_ATOM_UDEF_STEREO_COUNT>
0

> <PUBCHEM_BOND_DEF_STEREO_COUNT>
0

> <PUBCHEM_BOND_UDEF_STEREO_COUNT>
0

> <PUBCHEM_ISOTOPIC_ATOM_COUNT>
0

> <PUBCHEM_COMPONENT_COUNT>
1

> <PUBCHEM_CACTVS_TAUTO_COUNT>
-1

> <PUBCHEM_COORDINATE_TYPE>
1
5
255

$$$$
