102517711
  -OEChem-05122608462D

154161  0     0  0  0  0  0  0999 V2000
    3.5760    1.2840    0.0000 O   0  0  0  0  0  0  0  0  0  0  0  0
    3.3176    1.0061    0.0000 O   0  0  0  0  0  0  0  0  0  0  0  0
    4.3669    1.6633    0.0000 O   0  0  0  0  0  0  0  0  0  0  0  0
    2.9967    0.1897    0.0000 O   0  0  0  0  0  0  0  0  0  0  0  0
    4.7454    1.6909    0.0000 O   0  0  0  0  0  0  0  0  0  0  0  0
    2.9967   -0.1897    0.0000 O   0  0  0  0  0  0  0  0  0  0  0  0
    5.5829    1.4301    0.0000 O   0  0  0  0  0  0  0  0  0  0  0  0
    3.3176   -1.0061    0.0000 O   0  0  0  0  0  0  0  0  0  0  0  0
    5.8789    1.1926    0.0000 O   0  0  0  0  0  0  0  0  0  0  0  0
    3.5760   -1.2840    0.0000 O   0  0  0  0  0  0  0  0  0  0  0  0
    5.8789   -1.1926    0.0000 O   0  0  0  0  0  0  0  0  0  0  0  0
    4.3669   -1.6633    0.0000 O   0  0  0  0  0  0  0  0  0  0  0  0
    5.5829   -1.4301    0.0000 O   0  0  0  0  0  0  0  0  0  0  0  0
    4.7454   -1.6909    0.0000 O   0  0  0  0  0  0  0  0  0  0  0  0
    3.0825    2.1683    0.0000 O   0  0  0  0  0  0  0  0  0  0  0  0
    2.3998    1.4342    0.0000 O   0  0  0  0  0  0  0  0  0  0  0  0
    3.9863    2.6018    0.0000 O   0  0  0  0  0  0  0  0  0  0  0  0
    2.0331    0.5012    0.0000 O   0  0  0  0  0  0  0  0  0  0  0  0
    4.9861    2.6746    0.0000 O   0  0  0  0  0  0  0  0  0  0  0  0
    2.0331   -0.5012    0.0000 O   0  0  0  0  0  0  0  0  0  0  0  0
    5.9432    2.3765    0.0000 O   0  0  0  0  0  0  0  0  0  0  0  0
    2.3998   -1.4342    0.0000 O   0  0  0  0  0  0  0  0  0  0  0  0
    6.7250    1.7490    0.0000 O   0  0  0  0  0  0  0  0  0  0  0  0
    3.0825   -2.1683    0.0000 O   0  0  0  0  0  0  0  0  0  0  0  0
    6.7250   -1.7490    0.0000 O   0  0  0  0  0  0  0  0  0  0  0  0
    3.9863   -2.6018    0.0000 O   0  0  0  0  0  0  0  0  0  0  0  0
    5.9432   -2.3765    0.0000 O   0  0  0  0  0  0  0  0  0  0  0  0
    4.9861   -2.6746    0.0000 O   0  0  0  0  0  0  0  0  0  0  0  0
    3.7800    1.4341    0.0000 C   0  0  0  0  0  0  0  0  0  0  0  0
    3.1827    0.7918    0.0000 C   0  0  0  0  0  0  0  0  0  0  0  0
    4.1222    1.5982    0.0000 C   0  0  0  0  0  0  0  0  0  0  0  0
    3.0439    0.4386    0.0000 C   0  0  0  0  0  0  0  0  0  0  0  0
    4.9970    1.6619    0.0000 C   0  0  0  0  0  0  0  0  0  0  0  0
    3.0439   -0.4386    0.0000 C   0  0  0  0  0  0  0  0  0  0  0  0
    5.3594    1.5491    0.0000 C   0  0  0  0  0  0  0  0  0  0  0  0
    3.1827   -0.7918    0.0000 C   0  0  0  0  0  0  0  0  0  0  0  0
    6.0434    1.0000    0.0000 C   0  0  0  0  0  0  0  0  0  0  0  0
    3.7800   -1.4341    0.0000 C   0  0  0  0  0  0  0  0  0  0  0  0
    6.0434   -1.0000    0.0000 C   0  0  0  0  0  0  0  0  0  0  0  0
    4.1222   -1.5982    0.0000 C   0  0  0  0  0  0  0  0  0  0  0  0
    5.3594   -1.5491    0.0000 C   0  0  0  0  0  0  0  0  0  0  0  0
    4.9970   -1.6619    0.0000 C   0  0  0  0  0  0  0  0  0  0  0  0
    3.4830    1.1979    0.0000 C   0  0  0  0  0  0  0  0  0  0  0  0
    3.3967    1.1051    0.0000 C   0  0  0  0  0  0  0  0  0  0  0  0
    4.4923    1.6820    0.0000 C   0  0  0  0  0  0  0  0  0  0  0  0
    4.6187    1.6912    0.0000 C   0  0  0  0  0  0  0  0  0  0  0  0
    2.9872    0.0634    0.0000 C   0  0  0  0  0  0  0  0  0  0  0  0
    2.9872   -0.0634    0.0000 C   0  0  0  0  0  0  0  0  0  0  0  0
    5.6874    1.3584    0.0000 C   0  0  0  0  0  0  0  0  0  0  0  0
    5.7863    1.2791    0.0000 C   0  0  0  0  0  0  0  0  0  0  0  0
    3.3967   -1.1051    0.0000 C   0  0  0  0  0  0  0  0  0  0  0  0
    3.4830   -1.1979    0.0000 C   0  0  0  0  0  0  0  0  0  0  0  0
    5.7863   -1.2791    0.0000 C   0  0  0  0  0  0  0  0  0  0  0  0
    5.6874   -1.3584    0.0000 C   0  0  0  0  0  0  0  0  0  0  0  0
    4.4923   -1.6820    0.0000 C   0  0  0  0  0  0  0  0  0  0  0  0
    4.6187   -1.6912    0.0000 C   0  0  0  0  0  0  0  0  0  0  0  0
    3.8899    1.4973    0.0000 C   0  0  0  0  0  0  0  0  0  0  0  0
    4.0041    1.5522    0.0000 C   0  0  0  0  0  0  0  0  0  0  0  0
    2.3824    1.4640    0.0000 C   0  0  0  0  0  0  0  0  0  0  0  0
    2.0000    0.4913    0.0000 C   0  0  0  0  0  0  0  0  0  0  0  0
    4.9738    2.7069    0.0000 C   0  0  0  0  0  0  0  0  0  0  0  0
    5.9717    2.3961    0.0000 C   0  0  0  0  0  0  0  0  0  0  0  0
    3.0813   -0.5597    0.0000 C   0  0  0  0  0  0  0  0  0  0  0  0
    3.1276   -0.6776    0.0000 C   0  0  0  0  0  0  0  0  0  0  0  0
    5.1774    0.5000    0.0000 C   0  0  0  0  0  0  0  0  0  0  0  0
    5.1774   -0.5000    0.0000 C   0  0  0  0  0  0  0  0  0  0  0  0
    3.8899   -1.4973    0.0000 C   0  0  0  0  0  0  0  0  0  0  0  0
    4.0041   -1.5522    0.0000 C   0  0  0  0  0  0  0  0  0  0  0  0
    5.2415   -1.5957    0.0000 C   0  0  0  0  0  0  0  0  0  0  0  0
    5.1205   -1.6334    0.0000 C   0  0  0  0  0  0  0  0  0  0  0  0
    3.0514    2.1835    0.0000 C   0  0  0  0  0  0  0  0  0  0  0  0
    3.9938    2.6355    0.0000 C   0  0  0  0  0  0  0  0  0  0  0  0
    3.1276    0.6776    0.0000 C   0  0  0  0  0  0  0  0  0  0  0  0
    3.0813    0.5597    0.0000 C   0  0  0  0  0  0  0  0  0  0  0  0
    5.1205    1.6334    0.0000 C   0  0  0  0  0  0  0  0  0  0  0  0
    5.2415    1.5957    0.0000 C   0  0  0  0  0  0  0  0  0  0  0  0
    2.0000   -0.4913    0.0000 C   0  0  0  0  0  0  0  0  0  0  0  0
    2.3824   -1.4640    0.0000 C   0  0  0  0  0  0  0  0  0  0  0  0
    6.9094    0.5000    0.0000 C   0  0  0  0  0  0  0  0  0  0  0  0
    6.9094   -0.5000    0.0000 C   0  0  0  0  0  0  0  0  0  0  0  0
    3.0514   -2.1835    0.0000 C   0  0  0  0  0  0  0  0  0  0  0  0
    3.9938   -2.6355    0.0000 C   0  0  0  0  0  0  0  0  0  0  0  0
    5.9717   -2.3961    0.0000 C   0  0  0  0  0  0  0  0  0  0  0  0
    4.9738   -2.7069    0.0000 C   0  0  0  0  0  0  0  0  0  0  0  0
    3.6752    1.3629    0.0000 C   0  0  0  0  0  0  0  0  0  0  0  0
    3.2461    0.9015    0.0000 C   0  0  0  0  0  0  0  0  0  0  0  0
    4.2433    1.6354    0.0000 C   0  0  0  0  0  0  0  0  0  0  0  0
    3.0156    0.3150    0.0000 C   0  0  0  0  0  0  0  0  0  0  0  0
    4.8718    1.6811    0.0000 C   0  0  0  0  0  0  0  0  0  0  0  0
    3.0156   -0.3150    0.0000 C   0  0  0  0  0  0  0  0  0  0  0  0
    5.4734    1.4938    0.0000 C   0  0  0  0  0  0  0  0  0  0  0  0
    3.2461   -0.9015    0.0000 C   0  0  0  0  0  0  0  0  0  0  0  0
    5.9647    1.0994    0.0000 C   0  0  0  0  0  0  0  0  0  0  0  0
    3.6752   -1.3629    0.0000 C   0  0  0  0  0  0  0  0  0  0  0  0
    5.9647   -1.0994    0.0000 C   0  0  0  0  0  0  0  0  0  0  0  0
    4.2433   -1.6354    0.0000 C   0  0  0  0  0  0  0  0  0  0  0  0
    5.4734   -1.4938    0.0000 C   0  0  0  0  0  0  0  0  0  0  0  0
    4.8718   -1.6811    0.0000 C   0  0  0  0  0  0  0  0  0  0  0  0
    3.3307    1.7989    0.0000 H   0  0  0  0  0  0  0  0  0  0  0  0
    3.9209    0.7590    0.0000 H   0  0  0  0  0  0  0  0  0  0  0  0
    3.1999    1.6930    0.0000 H   0  0  0  0  0  0  0  0  0  0  0  0
    3.8663    0.7002    0.0000 H   0  0  0  0  0  0  0  0  0  0  0  0
    4.7485    2.2466    0.0000 H   0  0  0  0  0  0  0  0  0  0  0  0
    4.5604    1.0657    0.0000 H   0  0  0  0  0  0  0  0  0  0  0  0
    4.9164    2.2350    0.0000 H   0  0  0  0  0  0  0  0  0  0  0  0
    4.6405    1.0716    0.0000 H   0  0  0  0  0  0  0  0  0  0  0  0
    2.4664    0.3998    0.0000 H   0  0  0  0  0  0  0  0  0  0  0  0
    3.6068    0.0401    0.0000 H   0  0  0  0  0  0  0  0  0  0  0  0
    2.4427    0.2331    0.0000 H   0  0  0  0  0  0  0  0  0  0  0  0
    3.6068   -0.0401    0.0000 H   0  0  0  0  0  0  0  0  0  0  0  0
    6.2595    1.5974    0.0000 H   0  0  0  0  0  0  0  0  0  0  0  0
    5.3177    0.8607    0.0000 H   0  0  0  0  0  0  0  0  0  0  0  0
    6.3746    1.4746    0.0000 H   0  0  0  0  0  0  0  0  0  0  0  0
    5.3803    0.8104    0.0000 H   0  0  0  0  0  0  0  0  0  0  0  0
    2.7863   -1.2134    0.0000 H   0  0  0  0  0  0  0  0  0  0  0  0
    3.8663   -0.7002    0.0000 H   0  0  0  0  0  0  0  0  0  0  0  0
    2.8824   -1.3516    0.0000 H   0  0  0  0  0  0  0  0  0  0  0  0
    3.9209   -0.7590    0.0000 H   0  0  0  0  0  0  0  0  0  0  0  0
    5.8959   -1.8893    0.0000 H   0  0  0  0  0  0  0  0  0  0  0  0
    5.3803   -0.8104    0.0000 H   0  0  0  0  0  0  0  0  0  0  0  0
    5.7511   -1.9751    0.0000 H   0  0  0  0  0  0  0  0  0  0  0  0
    5.3177   -0.8607    0.0000 H   0  0  0  0  0  0  0  0  0  0  0  0
    4.1190   -2.1770    0.0000 H   0  0  0  0  0  0  0  0  0  0  0  0
    4.5604   -1.0657    0.0000 H   0  0  0  0  0  0  0  0  0  0  0  0
    4.2834   -2.2127    0.0000 H   0  0  0  0  0  0  0  0  0  0  0  0
    4.6405   -1.0716    0.0000 H   0  0  0  0  0  0  0  0  0  0  0  0
    3.6010    2.0459    0.0000 H   0  0  0  0  0  0  0  0  0  0  0  0
    3.7571    2.1208    0.0000 H   0  0  0  0  0  0  0  0  0  0  0  0
    2.2297    2.0649    0.0000 H   0  0  0  0  0  0  0  0  0  0  0  0
    1.4790    0.1552    0.0000 H   0  0  0  0  0  0  0  0  0  0  0  0
    4.6008    3.2021    0.0000 H   0  0  0  0  0  0  0  0  0  0  0  0
    6.5600    2.5920    0.0000 H   0  0  0  0  0  0  0  0  0  0  0  0
    2.4962   -0.7647    0.0000 H   0  0  0  0  0  0  0  0  0  0  0  0
    2.5595   -0.9259    0.0000 H   0  0  0  0  0  0  0  0  0  0  0  0
    4.6404    0.8100    0.0000 H   0  0  0  0  0  0  0  0  0  0  0  0
    4.6404   -0.8100    0.0000 H   0  0  0  0  0  0  0  0  0  0  0  0
    3.6010   -2.0459    0.0000 H   0  0  0  0  0  0  0  0  0  0  0  0
    3.7571   -2.1208    0.0000 H   0  0  0  0  0  0  0  0  0  0  0  0
    5.4479   -2.1804    0.0000 H   0  0  0  0  0  0  0  0  0  0  0  0
    5.2826   -2.2319    0.0000 H   0  0  0  0  0  0  0  0  0  0  0  0
    2.4410    2.2922    0.0000 H   0  0  0  0  0  0  0  0  0  0  0  0
    4.2912    3.1796    0.0000 H   0  0  0  0  0  0  0  0  0  0  0  0
    2.5595    0.9259    0.0000 H   0  0  0  0  0  0  0  0  0  0  0  0
    2.4962    0.7647    0.0000 H   0  0  0  0  0  0  0  0  0  0  0  0
    5.2826    2.2319    0.0000 H   0  0  0  0  0  0  0  0  0  0  0  0
    5.4479    2.1804    0.0000 H   0  0  0  0  0  0  0  0  0  0  0  0
    1.4790   -0.1552    0.0000 H   0  0  0  0  0  0  0  0  0  0  0  0
    2.2297   -2.0649    0.0000 H   0  0  0  0  0  0  0  0  0  0  0  0
    7.4464    0.8100    0.0000 H   0  0  0  0  0  0  0  0  0  0  0  0
    7.4464   -0.8100    0.0000 H   0  0  0  0  0  0  0  0  0  0  0  0
    2.4410   -2.2922    0.0000 H   0  0  0  0  0  0  0  0  0  0  0  0
    4.2912   -3.1796    0.0000 H   0  0  0  0  0  0  0  0  0  0  0  0
    6.5600   -2.5920    0.0000 H   0  0  0  0  0  0  0  0  0  0  0  0
    4.6008   -3.2021    0.0000 H   0  0  0  0  0  0  0  0  0  0  0  0
  1 43  1  0  0  0  0
  1 85  1  0  0  0  0
  2 44  1  0  0  0  0
  2 86  1  0  0  0  0
  3 45  1  0  0  0  0
  3 87  1  0  0  0  0
  4 47  1  0  0  0  0
  4 88  1  0  0  0  0
  5 46  1  0  0  0  0
  5 89  1  0  0  0  0
  6 48  1  0  0  0  0
  6 90  1  0  0  0  0
  7 49  1  0  0  0  0
  7 91  1  0  0  0  0
  8 51  1  0  0  0  0
  8 92  1  0  0  0  0
  9 50  1  0  0  0  0
  9 93  1  0  0  0  0
 10 52  1  0  0  0  0
 10 94  1  0  0  0  0
 11 53  1  0  0  0  0
 11 95  1  0  0  0  0
 12 55  1  0  0  0  0
 12 96  1  0  0  0  0
 13 54  1  0  0  0  0
 13 97  1  0  0  0  0
 14 56  1  0  0  0  0
 14 98  1  0  0  0  0
 15 85  2  0  0  0  0
 16 86  2  0  0  0  0
 17 87  2  0  0  0  0
 18 88  2  0  0  0  0
 19 89  2  0  0  0  0
 20 90  2  0  0  0  0
 21 91  2  0  0  0  0
 22 92  2  0  0  0  0
 23 93  2  0  0  0  0
 24 94  2  0  0  0  0
 25 95  2  0  0  0  0
 26 96  2  0  0  0  0
 27 97  2  0  0  0  0
 28 98  2  0  0  0  0
 29 57  2  0  0  0  0
 29 71  1  0  0  0  0
 29 85  1  0  0  0  0
 30 59  2  0  0  0  0
 30 73  1  0  0  0  0
 30 86  1  0  0  0  0
 31 58  2  0  0  0  0
 31 72  1  0  0  0  0
 31 87  1  0  0  0  0
 32 60  2  0  0  0  0
 32 74  1  0  0  0  0
 32 88  1  0  0  0  0
 33 61  2  0  0  0  0
 33 75  1  0  0  0  0
 33 89  1  0  0  0  0
 34 63  2  0  0  0  0
 34 77  1  0  0  0  0
 34 90  1  0  0  0  0
 35 62  2  0  0  0  0
 35 76  1  0  0  0  0
 35 91  1  0  0  0  0
 36 64  2  0  0  0  0
 36 78  1  0  0  0  0
 36 92  1  0  0  0  0
 37 65  2  0  0  0  0
 37 79  1  0  0  0  0
 37 93  1  0  0  0  0
 38 67  2  0  0  0  0
 38 81  1  0  0  0  0
 38 94  1  0  0  0  0
 39 66  2  0  0  0  0
 39 80  1  0  0  0  0
 39 95  1  0  0  0  0
 40 68  2  0  0  0  0
 40 82  1  0  0  0  0
 40 96  1  0  0  0  0
 41 69  2  0  0  0  0
 41 83  1  0  0  0  0
 41 97  1  0  0  0  0
 42 70  2  0  0  0  0
 42 84  1  0  0  0  0
 42 98  1  0  0  0  0
 43 44  1  0  0  0  0
 43 99  1  0  0  0  0
 43100  1  0  0  0  0
 44101  1  0  0  0  0
 44102  1  0  0  0  0
 45 46  1  0  0  0  0
 45103  1  0  0  0  0
 45104  1  0  0  0  0
 46105  1  0  0  0  0
 46106  1  0  0  0  0
 47 48  1  0  0  0  0
 47107  1  0  0  0  0
 47108  1  0  0  0  0
 48109  1  0  0  0  0
 48110  1  0  0  0  0
 49 50  1  0  0  0  0
 49111  1  0  0  0  0
 49112  1  0  0  0  0
 50113  1  0  0  0  0
 50114  1  0  0  0  0
 51 52  1  0  0  0  0
 51115  1  0  0  0  0
 51116  1  0  0  0  0
 52117  1  0  0  0  0
 52118  1  0  0  0  0
 53 54  1  0  0  0  0
 53119  1  0  0  0  0
 53120  1  0  0  0  0
 54121  1  0  0  0  0
 54122  1  0  0  0  0
 55 56  1  0  0  0  0
 55123  1  0  0  0  0
 55124  1  0  0  0  0
 56125  1  0  0  0  0
 56126  1  0  0  0  0
 57 58  1  0  0  0  0
 57127  1  0  0  0  0
 58128  1  0  0  0  0
 59 60  1  0  0  0  0
 59129  1  0  0  0  0
 60130  1  0  0  0  0
 61 62  1  0  0  0  0
 61131  1  0  0  0  0
 62132  1  0  0  0  0
 63 64  1  0  0  0  0
 63133  1  0  0  0  0
 64134  1  0  0  0  0
 65 66  1  0  0  0  0
 65135  1  0  0  0  0
 66136  1  0  0  0  0
 67 68  1  0  0  0  0
 67137  1  0  0  0  0
 68138  1  0  0  0  0
 69 70  1  0  0  0  0
 69139  1  0  0  0  0
 70140  1  0  0  0  0
 71 72  2  0  0  0  0
 71141  1  0  0  0  0
 72142  1  0  0  0  0
 73 74  2  0  0  0  0
 73143  1  0  0  0  0
 74144  1  0  0  0  0
 75 76  2  0  0  0  0
 75145  1  0  0  0  0
 76146  1  0  0  0  0
 77 78  2  0  0  0  0
 77147  1  0  0  0  0
 78148  1  0  0  0  0
 79 80  2  0  0  0  0
 79149  1  0  0  0  0
 80150  1  0  0  0  0
 81 82  2  0  0  0  0
 81151  1  0  0  0  0
 82152  1  0  0  0  0
 83 84  2  0  0  0  0
 83153  1  0  0  0  0
 84154  1  0  0  0  0
M  END
> <PUBCHEM_COMPOUND_CID>
102517711

> <PUBCHEM_COMPOUND_CANONICALIZED>
1

> <PUBCHEM_CACTVS_COMPLEXITY>
2010

> <PUBCHEM_CACTVS_HBOND_ACCEPTOR>
28

> <PUBCHEM_CACTVS_HBOND_DONOR>
0

> <PUBCHEM_CACTVS_ROTATABLE_BOND>
0

> <PUBCHEM_CACTVS_SUBSKEYS>
AAADcfB8PgAAAAAAAAAAAAAAAAAAAAAAAAAwYMGDAAAAAAABVAAAGgAAAAAADACgmAIwCIAABACIAiDSCAACAAAkAAAIiAEACMgJJjKANRiCMQAkwAEKqYeIyDCOQAAAAAAAAACAAAAAAAAAAAAAAAAAAA==

> <PUBCHEM_IUPAC_OPENEYE_NAME>
3,6,13,16,23,26,33,36,43,46,53,56,63,66-tetradecaoxaoctacyclo[66.2.2.28,11.218,21.228,31.238,41.248,51.258,61]tetraoctaconta-1(71),8,10,18,20,28,30,38(78),39,41(77),48(76),49,51(75),58(74),59,61(73),68(72),69,79,81,83-henicosaene-2,7,12,17,22,27,32,37,42,47,52,57,62,67-tetradecone

> <PUBCHEM_IUPAC_CAS_NAME>
3,6,13,16,23,26,33,36,43,46,53,56,63,66-tetradecaoxaoctacyclo[66.2.2.28,11.218,21.228,31.238,41.248,51.258,61]tetraoctaconta-1(71),8,10,18,20,28,30,38(78),39,41(77),48(76),49,51(75),58(74),59,61(73),68(72),69,79,81,83-heneicosaene-2,7,12,17,22,27,32,37,42,47,52,57,62,67-tetradecone

> <PUBCHEM_IUPAC_NAME_MARKUP>
3,6,13,16,23,26,33,36,43,46,53,56,63,66-tetradecaoxaoctacyclo[66.2.2.2<SUP>8,11</SUP>.2<SUP>18,21</SUP>.2<SUP>28,31</SUP>.2<SUP>38,41</SUP>.2<SUP>48,51</SUP>.2<SUP>58,61</SUP>]tetraoctaconta-1(71),8,10,18,20,28,30,38(78),39,41(77),48(76),49,51(75),58(74),59,61(73),68(72),69,79,81,83-henicosaene-2,7,12,17,22,27,32,37,42,47,52,57,62,67-tetradecone

> <PUBCHEM_IUPAC_NAME>
3,6,13,16,23,26,33,36,43,46,53,56,63,66-tetradecaoxaoctacyclo[66.2.2.28,11.218,21.228,31.238,41.248,51.258,61]tetraoctaconta-1(71),8,10,18,20,28,30,38(78),39,41(77),48(76),49,51(75),58(74),59,61(73),68(72),69,79,81,83-henicosaene-2,7,12,17,22,27,32,37,42,47,52,57,62,67-tetradecone

> <PUBCHEM_IUPAC_SYSTEMATIC_NAME>
3,6,13,16,23,26,33,36,43,46,53,56,63,66-tetradecaoxaoctacyclo[66.2.2.28,11.218,21.228,31.238,41.248,51.258,61]tetraoctaconta-1(71),8,10,18,20,28,30,38(78),39,41(77),48(76),49,51(75),58(74),59,61(73),68(72),69,79,81,83-henicosaene-2,7,12,17,22,27,32,37,42,47,52,57,62,67-tetradecone

> <PUBCHEM_IUPAC_TRADITIONAL_NAME>
3,6,13,16,23,26,33,36,43,46,53,56,63,66-tetradecaoxaoctacyclo[66.2.2.28,11.218,21.228,31.238,41.248,51.258,61]tetraoctaconta-1(71),8,10,18,20,28,30,38(78),39,41(77),48(76),49,51(75),58(74),59,61(73),68(72),69,79,81,83-heneicosaene-2,7,12,17,22,27,32,37,42,47,52,57,62,67-heptaquinone

> <PUBCHEM_IUPAC_INCHI>
InChI=1S/C70H56O28/c71-57-43-1-2-44(4-3-43)58(72)86-31-32-88-60(74)46-9-11-48(12-10-46)62(76)90-35-36-92-64(78)50-17-19-52(20-18-50)66(80)94-39-40-96-68(82)54-25-27-56(28-26-54)70(84)98-42-41-97-69(83)55-23-21-53(22-24-55)67(81)95-38-37-93-65(79)51-15-13-49(14-16-51)63(77)91-34-33-89-61(75)47-7-5-45(6-8-47)59(73)87-30-29-85-57/h1-28H,29-42H2

> <PUBCHEM_IUPAC_INCHIKEY>
VMQIGRVYMJNUAD-UHFFFAOYSA-N

> <PUBCHEM_XLOGP3_AA>
9.8

> <PUBCHEM_EXACT_MASS>
1344.29581113

> <PUBCHEM_MOLECULAR_FORMULA>
C70H56O28

> <PUBCHEM_MOLECULAR_WEIGHT>
1345.2

> <PUBCHEM_SMILES>
C1COC(=O)C2=CC=C(C=C2)C(=O)OCCOC(=O)C3=CC=C(C=C3)C(=O)OCCOC(=O)C4=CC=C(C=C4)C(=O)OCCOC(=O)C5=CC=C(C=C5)C(=O)OCCOC(=O)C6=CC=C(C=C6)C(=O)OCCOC(=O)C7=CC=C(C=C7)C(=O)OCCOC(=O)C8=CC=C(C=C8)C(=O)O1

> <PUBCHEM_CONNECTIVITY_SMILES>
C1COC(=O)C2=CC=C(C=C2)C(=O)OCCOC(=O)C3=CC=C(C=C3)C(=O)OCCOC(=O)C4=CC=C(C=C4)C(=O)OCCOC(=O)C5=CC=C(C=C5)C(=O)OCCOC(=O)C6=CC=C(C=C6)C(=O)OCCOC(=O)C7=CC=C(C=C7)C(=O)OCCOC(=O)C8=CC=C(C=C8)C(=O)O1

> <PUBCHEM_CACTVS_TPSA>
368

> <PUBCHEM_MONOISOTOPIC_WEIGHT>
1344.29581113

> <PUBCHEM_TOTAL_CHARGE>
0

> <PUBCHEM_HEAVY_ATOM_COUNT>
98

> <PUBCHEM_ATOM_DEF_STEREO_COUNT>
0

> <PUBCHEM_ATOM_UDEF_STEREO_COUNT>
0

> <PUBCHEM_BOND_DEF_STEREO_COUNT>
0

> <PUBCHEM_BOND_UDEF_STEREO_COUNT>
0

> <PUBCHEM_ISOTOPIC_ATOM_COUNT>
0

> <PUBCHEM_COMPONENT_COUNT>
1

> <PUBCHEM_CACTVS_TAUTO_COUNT>
-1

> <PUBCHEM_COORDINATE_TYPE>
1
5
255

> <PUBCHEM_BONDANNOTATIONS>
29  57  8
29  71  8
30  59  8
30  73  8
31  58  8
31  72  8
32  60  8
32  74  8
33  61  8
33  75  8
34  63  8
34  77  8
35  62  8
35  76  8
36  64  8
36  78  8
37  65  8
37  79  8
38  67  8
38  81  8
39  66  8
39  80  8
40  68  8
40  82  8
41  69  8
41  83  8
42  70  8
42  84  8
57  58  8
59  60  8
61  62  8
63  64  8
65  66  8
67  68  8
69  70  8
71  72  8
73  74  8
75  76  8
77  78  8
79  80  8
81  82  8
83  84  8

$$$$
