102990
  -OEChem-05122609162D

 25 27  0     1  0  0  0  0  0999 V2000
    6.8802   -1.6617    0.0000 O   0  0  0  0  0  0  0  0  0  0  0  0
    4.9813   -0.2868    0.0000 C   0  0  3  0  0  0  0  0  0  0  0  0
    5.2401    0.6791    0.0000 C   0  0  3  0  0  0  0  0  0  0  0  0
    3.6086   -0.8789    0.0000 C   0  0  3  0  0  0  0  0  0  0  0  0
    3.2666    0.0608    0.0000 C   0  0  3  0  0  0  0  0  0  0  0  0
    4.5035    1.6617    0.0000 C   0  0  0  0  0  0  0  0  0  0  0  0
    6.3802   -0.7957    0.0000 C   0  0  3  0  0  0  0  0  0  0  0  0
    6.6390    0.1703    0.0000 C   0  0  0  0  0  0  0  0  0  0  0  0
    2.8237   -1.4889    0.0000 C   0  0  0  0  0  0  0  0  0  0  0  0
    2.2732    0.0236    0.0000 C   0  0  0  0  0  0  0  0  0  0  0  0
    2.0000   -0.9323    0.0000 C   0  0  0  0  0  0  0  0  0  0  0  0
    5.6140    0.2808    0.0000 H   0  0  0  0  0  0  0  0  0  0  0  0
    5.7465    1.3618    0.0000 H   0  0  0  0  0  0  0  0  0  0  0  0
    4.0411   -1.6106    0.0000 H   0  0  0  0  0  0  0  0  0  0  0  0
    3.1223    0.8985    0.0000 H   0  0  0  0  0  0  0  0  0  0  0  0
    4.8213    2.1941    0.0000 H   0  0  0  0  0  0  0  0  0  0  0  0
    3.8904    1.7537    0.0000 H   0  0  0  0  0  0  0  0  0  0  0  0
    5.8339   -1.4469    0.0000 H   0  0  0  0  0  0  0  0  0  0  0  0
    7.2330   -0.0075    0.0000 H   0  0  0  0  0  0  0  0  0  0  0  0
    6.8340    0.7588    0.0000 H   0  0  0  0  0  0  0  0  0  0  0  0
    2.4244   -1.9632    0.0000 H   0  0  0  0  0  0  0  0  0  0  0  0
    3.2534   -1.9357    0.0000 H   0  0  0  0  0  0  0  0  0  0  0  0
    1.8906    0.5115    0.0000 H   0  0  0  0  0  0  0  0  0  0  0  0
    1.4174   -1.1443    0.0000 H   0  0  0  0  0  0  0  0  0  0  0  0
    7.5002   -1.6617    0.0000 H   0  0  0  0  0  0  0  0  0  0  0  0
  1  7  1  0  0  0  0
  1 25  1  0  0  0  0
  2  4  1  0  0  0  0
  2  6  1  0  0  0  0
  2  7  1  0  0  0  0
  2 12  1  0  0  0  0
  3  5  1  0  0  0  0
  3  6  1  0  0  0  0
  3  8  1  0  0  0  0
  3 13  1  0  0  0  0
  4  5  1  0  0  0  0
  4  9  1  0  0  0  0
  4 14  1  0  0  0  0
  5 10  1  0  0  0  0
  5 15  1  0  0  0  0
  6 16  1  0  0  0  0
  6 17  1  0  0  0  0
  7  8  1  0  0  0  0
  7 18  1  0  0  0  0
  8 19  1  0  0  0  0
  8 20  1  0  0  0  0
  9 11  1  0  0  0  0
  9 21  1  0  0  0  0
  9 22  1  0  0  0  0
 10 11  2  0  0  0  0
 10 23  1  0  0  0  0
 11 24  1  0  0  0  0
M  END
> <PUBCHEM_COMPOUND_CID>
102990

> <PUBCHEM_COMPOUND_CANONICALIZED>
1

> <PUBCHEM_CACTVS_COMPLEXITY>
209

> <PUBCHEM_CACTVS_HBOND_ACCEPTOR>
1

> <PUBCHEM_CACTVS_HBOND_DONOR>
1

> <PUBCHEM_CACTVS_ROTATABLE_BOND>
0

> <PUBCHEM_CACTVS_SUBSKEYS>
AAADccBwIAAAAAAAAAAAAAAAAAAAAYMEAAAwAAAAAAAQAAAAAAAAGgAACAAADRSggAIAAAAAAgCAACBCAAAAAAAgAAAICAAAAAgAEAIAAQAAQAAEgAAIAAOAwPAOgAAAAAAAAABAAAYAADAAAYAADAAAAA==

> <PUBCHEM_IUPAC_OPENEYE_NAME>
tricyclo[5.2.1.02,6]dec-3-en-8-ol

> <PUBCHEM_IUPAC_CAS_NAME>
8-tricyclo[5.2.1.02,6]dec-3-enol

> <PUBCHEM_IUPAC_NAME_MARKUP>
tricyclo[5.2.1.0<SUP>2,6</SUP>]dec-3-en-8-ol

> <PUBCHEM_IUPAC_NAME>
tricyclo[5.2.1.02,6]dec-3-en-8-ol

> <PUBCHEM_IUPAC_SYSTEMATIC_NAME>
tricyclo[5.2.1.02,6]dec-3-en-8-ol

> <PUBCHEM_IUPAC_TRADITIONAL_NAME>
tricyclo[5.2.1.02,6]dec-3-en-8-ol

> <PUBCHEM_IUPAC_INCHI>
InChI=1S/C10H14O/c11-10-5-6-4-9(10)8-3-1-2-7(6)8/h1-2,6-11H,3-5H2

> <PUBCHEM_IUPAC_INCHIKEY>
HIPPBUJQSIICJN-UHFFFAOYSA-N

> <PUBCHEM_XLOGP3_AA>
1.6

> <PUBCHEM_EXACT_MASS>
150.104465066

> <PUBCHEM_MOLECULAR_FORMULA>
C10H14O

> <PUBCHEM_MOLECULAR_WEIGHT>
150.22

> <PUBCHEM_SMILES>
C1C=CC2C1C3CC2CC3O

> <PUBCHEM_CONNECTIVITY_SMILES>
C1C=CC2C1C3CC2CC3O

> <PUBCHEM_CACTVS_TPSA>
20.2

> <PUBCHEM_MONOISOTOPIC_WEIGHT>
150.104465066

> <PUBCHEM_TOTAL_CHARGE>
0

> <PUBCHEM_HEAVY_ATOM_COUNT>
11

> <PUBCHEM_ATOM_DEF_STEREO_COUNT>
0

> <PUBCHEM_ATOM_UDEF_STEREO_COUNT>
5

> <PUBCHEM_BOND_DEF_STEREO_COUNT>
0

> <PUBCHEM_BOND_UDEF_STEREO_COUNT>
0

> <PUBCHEM_ISOTOPIC_ATOM_COUNT>
0

> <PUBCHEM_COMPONENT_COUNT>
1

> <PUBCHEM_CACTVS_TAUTO_COUNT>
-1

> <PUBCHEM_COORDINATE_TYPE>
1
5
255

> <PUBCHEM_BONDANNOTATIONS>
2  12  3
3  13  3
4  14  3
5  15  3
7  18  3

$$$$
