102940
  -OEChem-05122609562D

120120  0     1  0  0  0  0  0999 V2000
   10.6603    2.5000    0.0000 O   0  0  0  0  0  0  0  0  0  0  0  0
    7.1962    0.5000    0.0000 O   0  0  0  0  0  0  0  0  0  0  0  0
   12.3923   -0.5000    0.0000 O   0  0  0  0  0  0  0  0  0  0  0  0
    8.9282   -2.5000    0.0000 O   0  0  0  0  0  0  0  0  0  0  0  0
    8.9282    2.5000    0.0000 O   0  0  0  0  0  0  0  0  0  0  0  0
    8.0622    2.0000    0.0000 O   0  0  0  0  0  0  0  0  0  0  0  0
   11.5263   -2.0000    0.0000 O   0  0  0  0  0  0  0  0  0  0  0  0
   10.6603   -2.5000    0.0000 O   0  0  0  0  0  0  0  0  0  0  0  0
   11.5263    4.0000    0.0000 C   0  0  3  0  0  0  0  0  0  0  0  0
    5.4641    0.5000    0.0000 C   0  0  3  0  0  0  0  0  0  0  0  0
   14.1244   -0.5000    0.0000 C   0  0  3  0  0  0  0  0  0  0  0  0
    8.0622   -4.0000    0.0000 C   0  0  3  0  0  0  0  0  0  0  0  0
   11.5263    5.0000    0.0000 C   0  0  0  0  0  0  0  0  0  0  0  0
    4.5981    1.0000    0.0000 C   0  0  0  0  0  0  0  0  0  0  0  0
   14.9904   -1.0000    0.0000 C   0  0  0  0  0  0  0  0  0  0  0  0
    8.0622   -5.0000    0.0000 C   0  0  0  0  0  0  0  0  0  0  0  0
   12.3923    3.5000    0.0000 C   0  0  0  0  0  0  0  0  0  0  0  0
    5.4641   -0.5000    0.0000 C   0  0  0  0  0  0  0  0  0  0  0  0
   14.1244    0.5000    0.0000 C   0  0  0  0  0  0  0  0  0  0  0  0
    7.1962   -3.5000    0.0000 C   0  0  0  0  0  0  0  0  0  0  0  0
   12.3923    5.5000    0.0000 C   0  0  0  0  0  0  0  0  0  0  0  0
    3.7321    0.5000    0.0000 C   0  0  0  0  0  0  0  0  0  0  0  0
   15.8564   -0.5000    0.0000 C   0  0  0  0  0  0  0  0  0  0  0  0
    7.1962   -5.5000    0.0000 C   0  0  0  0  0  0  0  0  0  0  0  0
   10.6603    3.5000    0.0000 C   0  0  0  0  0  0  0  0  0  0  0  0
    6.3301    1.0000    0.0000 C   0  0  0  0  0  0  0  0  0  0  0  0
   13.2583   -1.0000    0.0000 C   0  0  0  0  0  0  0  0  0  0  0  0
    8.9282   -3.5000    0.0000 C   0  0  0  0  0  0  0  0  0  0  0  0
   12.3923    6.5000    0.0000 C   0  0  0  0  0  0  0  0  0  0  0  0
    2.8660    1.0000    0.0000 C   0  0  0  0  0  0  0  0  0  0  0  0
   16.7224   -1.0000    0.0000 C   0  0  0  0  0  0  0  0  0  0  0  0
    7.1962   -6.5000    0.0000 C   0  0  0  0  0  0  0  0  0  0  0  0
   13.2583    4.0000    0.0000 C   0  0  0  0  0  0  0  0  0  0  0  0
    4.5981   -1.0000    0.0000 C   0  0  0  0  0  0  0  0  0  0  0  0
   14.9904    1.0000    0.0000 C   0  0  0  0  0  0  0  0  0  0  0  0
    6.3301   -4.0000    0.0000 C   0  0  0  0  0  0  0  0  0  0  0  0
    9.7942    1.0000    0.0000 C   0  0  0  0  0  0  0  0  0  0  0  0
    8.9282    0.5000    0.0000 C   0  0  0  0  0  0  0  0  0  0  0  0
   10.6603   -0.5000    0.0000 C   0  0  0  0  0  0  0  0  0  0  0  0
    9.7942   -1.0000    0.0000 C   0  0  0  0  0  0  0  0  0  0  0  0
   13.2583    7.0000    0.0000 C   0  0  0  0  0  0  0  0  0  0  0  0
    2.0000    0.5000    0.0000 C   0  0  0  0  0  0  0  0  0  0  0  0
   17.5885   -0.5000    0.0000 C   0  0  0  0  0  0  0  0  0  0  0  0
    6.3301   -7.0000    0.0000 C   0  0  0  0  0  0  0  0  0  0  0  0
   10.6603    0.5000    0.0000 C   0  0  0  0  0  0  0  0  0  0  0  0
    8.9282   -0.5000    0.0000 C   0  0  0  0  0  0  0  0  0  0  0  0
    9.7942    2.0000    0.0000 C   0  0  0  0  0  0  0  0  0  0  0  0
    8.0622    1.0000    0.0000 C   0  0  0  0  0  0  0  0  0  0  0  0
   11.5263   -1.0000    0.0000 C   0  0  0  0  0  0  0  0  0  0  0  0
    9.7942   -2.0000    0.0000 C   0  0  0  0  0  0  0  0  0  0  0  0
   12.0632    4.3100    0.0000 H   0  0  0  0  0  0  0  0  0  0  0  0
    5.4641    1.1200    0.0000 H   0  0  0  0  0  0  0  0  0  0  0  0
   13.5874   -0.1900    0.0000 H   0  0  0  0  0  0  0  0  0  0  0  0
    8.0622   -3.3800    0.0000 H   0  0  0  0  0  0  0  0  0  0  0  0
   11.3142    5.5826    0.0000 H   0  0  0  0  0  0  0  0  0  0  0  0
   10.9157    4.8923    0.0000 H   0  0  0  0  0  0  0  0  0  0  0  0
    4.9966    1.4750    0.0000 H   0  0  0  0  0  0  0  0  0  0  0  0
    4.1996    1.4750    0.0000 H   0  0  0  0  0  0  0  0  0  0  0  0
   14.5919   -1.4750    0.0000 H   0  0  0  0  0  0  0  0  0  0  0  0
   15.3889   -1.4750    0.0000 H   0  0  0  0  0  0  0  0  0  0  0  0
    8.2742   -5.5826    0.0000 H   0  0  0  0  0  0  0  0  0  0  0  0
    8.6728   -4.8923    0.0000 H   0  0  0  0  0  0  0  0  0  0  0  0
   11.9938    3.0251    0.0000 H   0  0  0  0  0  0  0  0  0  0  0  0
   12.7908    3.0251    0.0000 H   0  0  0  0  0  0  0  0  0  0  0  0
    5.6762   -1.0826    0.0000 H   0  0  0  0  0  0  0  0  0  0  0  0
    6.0747   -0.3923    0.0000 H   0  0  0  0  0  0  0  0  0  0  0  0
   13.9123    1.0826    0.0000 H   0  0  0  0  0  0  0  0  0  0  0  0
   13.5138    0.3923    0.0000 H   0  0  0  0  0  0  0  0  0  0  0  0
    7.5947   -3.0251    0.0000 H   0  0  0  0  0  0  0  0  0  0  0  0
    6.7976   -3.0251    0.0000 H   0  0  0  0  0  0  0  0  0  0  0  0
   12.6044    4.9174    0.0000 H   0  0  0  0  0  0  0  0  0  0  0  0
   13.0029    5.6077    0.0000 H   0  0  0  0  0  0  0  0  0  0  0  0
    3.3335    0.0251    0.0000 H   0  0  0  0  0  0  0  0  0  0  0  0
    4.1306    0.0251    0.0000 H   0  0  0  0  0  0  0  0  0  0  0  0
   16.2549   -0.0251    0.0000 H   0  0  0  0  0  0  0  0  0  0  0  0
   15.4579   -0.0251    0.0000 H   0  0  0  0  0  0  0  0  0  0  0  0
    6.9841   -4.9174    0.0000 H   0  0  0  0  0  0  0  0  0  0  0  0
    6.5856   -5.6077    0.0000 H   0  0  0  0  0  0  0  0  0  0  0  0
   10.4482    4.0826    0.0000 H   0  0  0  0  0  0  0  0  0  0  0  0
   10.0497    3.3923    0.0000 H   0  0  0  0  0  0  0  0  0  0  0  0
    6.7287    1.4750    0.0000 H   0  0  0  0  0  0  0  0  0  0  0  0
    5.9316    1.4750    0.0000 H   0  0  0  0  0  0  0  0  0  0  0  0
   12.8598   -1.4750    0.0000 H   0  0  0  0  0  0  0  0  0  0  0  0
   13.6569   -1.4750    0.0000 H   0  0  0  0  0  0  0  0  0  0  0  0
    9.1403   -4.0826    0.0000 H   0  0  0  0  0  0  0  0  0  0  0  0
    9.5388   -3.3923    0.0000 H   0  0  0  0  0  0  0  0  0  0  0  0
   12.1803    7.0826    0.0000 H   0  0  0  0  0  0  0  0  0  0  0  0
   11.7817    6.3923    0.0000 H   0  0  0  0  0  0  0  0  0  0  0  0
    3.2646    1.4750    0.0000 H   0  0  0  0  0  0  0  0  0  0  0  0
    2.4675    1.4750    0.0000 H   0  0  0  0  0  0  0  0  0  0  0  0
   16.3239   -1.4750    0.0000 H   0  0  0  0  0  0  0  0  0  0  0  0
   17.1210   -1.4750    0.0000 H   0  0  0  0  0  0  0  0  0  0  0  0
    7.4082   -7.0826    0.0000 H   0  0  0  0  0  0  0  0  0  0  0  0
    7.8067   -6.3923    0.0000 H   0  0  0  0  0  0  0  0  0  0  0  0
   13.5683    3.4631    0.0000 H   0  0  0  0  0  0  0  0  0  0  0  0
   13.7953    4.3100    0.0000 H   0  0  0  0  0  0  0  0  0  0  0  0
   12.9483    4.5369    0.0000 H   0  0  0  0  0  0  0  0  0  0  0  0
    4.2881   -0.4631    0.0000 H   0  0  0  0  0  0  0  0  0  0  0  0
    4.0611   -1.3100    0.0000 H   0  0  0  0  0  0  0  0  0  0  0  0
    4.9081   -1.5369    0.0000 H   0  0  0  0  0  0  0  0  0  0  0  0
   15.3004    0.4631    0.0000 H   0  0  0  0  0  0  0  0  0  0  0  0
   15.5273    1.3100    0.0000 H   0  0  0  0  0  0  0  0  0  0  0  0
   14.6804    1.5369    0.0000 H   0  0  0  0  0  0  0  0  0  0  0  0
    6.0201   -3.4631    0.0000 H   0  0  0  0  0  0  0  0  0  0  0  0
    5.7932   -4.3100    0.0000 H   0  0  0  0  0  0  0  0  0  0  0  0
    6.6401   -4.5369    0.0000 H   0  0  0  0  0  0  0  0  0  0  0  0
   13.5683    6.4631    0.0000 H   0  0  0  0  0  0  0  0  0  0  0  0
   13.7953    7.3100    0.0000 H   0  0  0  0  0  0  0  0  0  0  0  0
   12.9483    7.5369    0.0000 H   0  0  0  0  0  0  0  0  0  0  0  0
    1.6900    1.0369    0.0000 H   0  0  0  0  0  0  0  0  0  0  0  0
    1.4631    0.1900    0.0000 H   0  0  0  0  0  0  0  0  0  0  0  0
    2.3100   -0.0369    0.0000 H   0  0  0  0  0  0  0  0  0  0  0  0
   17.8985   -1.0369    0.0000 H   0  0  0  0  0  0  0  0  0  0  0  0
   18.1254   -0.1900    0.0000 H   0  0  0  0  0  0  0  0  0  0  0  0
   17.2785    0.0369    0.0000 H   0  0  0  0  0  0  0  0  0  0  0  0
    6.0201   -6.4631    0.0000 H   0  0  0  0  0  0  0  0  0  0  0  0
    5.7932   -7.3100    0.0000 H   0  0  0  0  0  0  0  0  0  0  0  0
    6.6401   -7.5369    0.0000 H   0  0  0  0  0  0  0  0  0  0  0  0
   11.1972    0.8100    0.0000 H   0  0  0  0  0  0  0  0  0  0  0  0
    8.3913   -0.8100    0.0000 H   0  0  0  0  0  0  0  0  0  0  0  0
  1 25  1  0  0  0  0
  1 47  1  0  0  0  0
  2 26  1  0  0  0  0
  2 48  1  0  0  0  0
  3 27  1  0  0  0  0
  3 49  1  0  0  0  0
  4 28  1  0  0  0  0
  4 50  1  0  0  0  0
  5 47  2  0  0  0  0
  6 48  2  0  0  0  0
  7 49  2  0  0  0  0
  8 50  2  0  0  0  0
  9 13  1  0  0  0  0
  9 17  1  0  0  0  0
  9 25  1  0  0  0  0
  9 51  1  0  0  0  0
 10 14  1  0  0  0  0
 10 18  1  0  0  0  0
 10 26  1  0  0  0  0
 10 52  1  0  0  0  0
 11 15  1  0  0  0  0
 11 19  1  0  0  0  0
 11 27  1  0  0  0  0
 11 53  1  0  0  0  0
 12 16  1  0  0  0  0
 12 20  1  0  0  0  0
 12 28  1  0  0  0  0
 12 54  1  0  0  0  0
 13 21  1  0  0  0  0
 13 55  1  0  0  0  0
 13 56  1  0  0  0  0
 14 22  1  0  0  0  0
 14 57  1  0  0  0  0
 14 58  1  0  0  0  0
 15 23  1  0  0  0  0
 15 59  1  0  0  0  0
 15 60  1  0  0  0  0
 16 24  1  0  0  0  0
 16 61  1  0  0  0  0
 16 62  1  0  0  0  0
 17 33  1  0  0  0  0
 17 63  1  0  0  0  0
 17 64  1  0  0  0  0
 18 34  1  0  0  0  0
 18 65  1  0  0  0  0
 18 66  1  0  0  0  0
 19 35  1  0  0  0  0
 19 67  1  0  0  0  0
 19 68  1  0  0  0  0
 20 36  1  0  0  0  0
 20 69  1  0  0  0  0
 20 70  1  0  0  0  0
 21 29  1  0  0  0  0
 21 71  1  0  0  0  0
 21 72  1  0  0  0  0
 22 30  1  0  0  0  0
 22 73  1  0  0  0  0
 22 74  1  0  0  0  0
 23 31  1  0  0  0  0
 23 75  1  0  0  0  0
 23 76  1  0  0  0  0
 24 32  1  0  0  0  0
 24 77  1  0  0  0  0
 24 78  1  0  0  0  0
 25 79  1  0  0  0  0
 25 80  1  0  0  0  0
 26 81  1  0  0  0  0
 26 82  1  0  0  0  0
 27 83  1  0  0  0  0
 27 84  1  0  0  0  0
 28 85  1  0  0  0  0
 28 86  1  0  0  0  0
 29 41  1  0  0  0  0
 29 87  1  0  0  0  0
 29 88  1  0  0  0  0
 30 42  1  0  0  0  0
 30 89  1  0  0  0  0
 30 90  1  0  0  0  0
 31 43  1  0  0  0  0
 31 91  1  0  0  0  0
 31 92  1  0  0  0  0
 32 44  1  0  0  0  0
 32 93  1  0  0  0  0
 32 94  1  0  0  0  0
 33 95  1  0  0  0  0
 33 96  1  0  0  0  0
 33 97  1  0  0  0  0
 34 98  1  0  0  0  0
 34 99  1  0  0  0  0
 34100  1  0  0  0  0
 35101  1  0  0  0  0
 35102  1  0  0  0  0
 35103  1  0  0  0  0
 36104  1  0  0  0  0
 36105  1  0  0  0  0
 36106  1  0  0  0  0
 37 38  2  0  0  0  0
 37 45  1  0  0  0  0
 37 47  1  0  0  0  0
 38 46  1  0  0  0  0
 38 48  1  0  0  0  0
 39 40  1  0  0  0  0
 39 45  2  0  0  0  0
 39 49  1  0  0  0  0
 40 46  2  0  0  0  0
 40 50  1  0  0  0  0
 41107  1  0  0  0  0
 41108  1  0  0  0  0
 41109  1  0  0  0  0
 42110  1  0  0  0  0
 42111  1  0  0  0  0
 42112  1  0  0  0  0
 43113  1  0  0  0  0
 43114  1  0  0  0  0
 43115  1  0  0  0  0
 44116  1  0  0  0  0
 44117  1  0  0  0  0
 44118  1  0  0  0  0
 45119  1  0  0  0  0
 46120  1  0  0  0  0
M  END
> <PUBCHEM_COMPOUND_CID>
102940

> <PUBCHEM_COMPOUND_CANONICALIZED>
1

> <PUBCHEM_CACTVS_COMPLEXITY>
789

> <PUBCHEM_CACTVS_HBOND_ACCEPTOR>
8

> <PUBCHEM_CACTVS_HBOND_DONOR>
0

> <PUBCHEM_CACTVS_ROTATABLE_BOND>
32

> <PUBCHEM_CACTVS_SUBSKEYS>
AAADcfB8PAAAAAAAAAAAAAAAAAAAAAAAAAAwAAAAAAAAAAABAAAAGgAAAAAADQCgmAIyCIAABACIAiDSCAACAAAkAAAAiAEACMgIJjKANBiCMQAkwAEIqYfL7viOwAACAAAQAACAAAQAACAAAAAAAAAAAA==

> <PUBCHEM_IUPAC_OPENEYE_NAME>
tetrakis(2-ethylhexyl) benzene-1,2,4,5-tetracarboxylate

> <PUBCHEM_IUPAC_CAS_NAME>
benzene-1,2,4,5-tetracarboxylic acid tetrakis(2-ethylhexyl) ester

> <PUBCHEM_IUPAC_NAME_MARKUP>
tetrakis(2-ethylhexyl) benzene-1,2,4,5-tetracarboxylate

> <PUBCHEM_IUPAC_NAME>
tetrakis(2-ethylhexyl) benzene-1,2,4,5-tetracarboxylate

> <PUBCHEM_IUPAC_SYSTEMATIC_NAME>
tetrakis(2-ethylhexyl) benzene-1,2,4,5-tetracarboxylate

> <PUBCHEM_IUPAC_TRADITIONAL_NAME>
benzene-1,2,4,5-tetracarboxylic acid tetrakis(2-ethylhexyl) ester

> <PUBCHEM_IUPAC_INCHI>
InChI=1S/C42H70O8/c1-9-17-21-31(13-5)27-47-39(43)35-25-37(41(45)49-29-33(15-7)23-19-11-3)38(42(46)50-30-34(16-8)24-20-12-4)26-36(35)40(44)48-28-32(14-6)22-18-10-2/h25-26,31-34H,9-24,27-30H2,1-8H3

> <PUBCHEM_IUPAC_INCHIKEY>
GNCDUZFXTFAOBE-UHFFFAOYSA-N

> <PUBCHEM_XLOGP3_AA>
13.8

> <PUBCHEM_EXACT_MASS>
702.50706919

> <PUBCHEM_MOLECULAR_FORMULA>
C42H70O8

> <PUBCHEM_MOLECULAR_WEIGHT>
703.0

> <PUBCHEM_SMILES>
CCCCC(CC)COC(=O)C1=CC(=C(C=C1C(=O)OCC(CC)CCCC)C(=O)OCC(CC)CCCC)C(=O)OCC(CC)CCCC

> <PUBCHEM_CONNECTIVITY_SMILES>
CCCCC(CC)COC(=O)C1=CC(=C(C=C1C(=O)OCC(CC)CCCC)C(=O)OCC(CC)CCCC)C(=O)OCC(CC)CCCC

> <PUBCHEM_CACTVS_TPSA>
105

> <PUBCHEM_MONOISOTOPIC_WEIGHT>
702.50706919

> <PUBCHEM_TOTAL_CHARGE>
0

> <PUBCHEM_HEAVY_ATOM_COUNT>
50

> <PUBCHEM_ATOM_DEF_STEREO_COUNT>
0

> <PUBCHEM_ATOM_UDEF_STEREO_COUNT>
4

> <PUBCHEM_BOND_DEF_STEREO_COUNT>
0

> <PUBCHEM_BOND_UDEF_STEREO_COUNT>
0

> <PUBCHEM_ISOTOPIC_ATOM_COUNT>
0

> <PUBCHEM_COMPONENT_COUNT>
1

> <PUBCHEM_CACTVS_TAUTO_COUNT>
-1

> <PUBCHEM_COORDINATE_TYPE>
1
5
255

> <PUBCHEM_BONDANNOTATIONS>
10  18  3
11  19  3
12  20  3
37  38  8
37  45  8
38  46  8
39  40  8
39  45  8
40  46  8
9  17  3

$$$$
