103202
  -OEChem-05122609472D

 57 56  0     0  0  0  0  0  0999 V2000
   10.6972    0.6160    0.0000 F   0  0  0  0  0  0  0  0  0  0  0  0
   11.6972   -1.1160    0.0000 F   0  0  0  0  0  0  0  0  0  0  0  0
   11.5632    1.1160    0.0000 F   0  0  0  0  0  0  0  0  0  0  0  0
   12.5632   -0.6160    0.0000 F   0  0  0  0  0  0  0  0  0  0  0  0
    9.8312    0.1160    0.0000 F   0  0  0  0  0  0  0  0  0  0  0  0
   10.8312   -1.6160    0.0000 F   0  0  0  0  0  0  0  0  0  0  0  0
   13.4292   -0.1160    0.0000 F   0  0  0  0  0  0  0  0  0  0  0  0
   12.4292    1.6160    0.0000 F   0  0  0  0  0  0  0  0  0  0  0  0
    8.9651   -0.3840    0.0000 F   0  0  0  0  0  0  0  0  0  0  0  0
    9.9651   -2.1160    0.0000 F   0  0  0  0  0  0  0  0  0  0  0  0
    8.0991   -0.8840    0.0000 F   0  0  0  0  0  0  0  0  0  0  0  0
    9.0991   -2.6160    0.0000 F   0  0  0  0  0  0  0  0  0  0  0  0
   14.2953    0.3840    0.0000 F   0  0  0  0  0  0  0  0  0  0  0  0
   13.2953    2.1160    0.0000 F   0  0  0  0  0  0  0  0  0  0  0  0
    7.2331   -1.3840    0.0000 F   0  0  0  0  0  0  0  0  0  0  0  0
    8.2331   -3.1160    0.0000 F   0  0  0  0  0  0  0  0  0  0  0  0
   15.1613    0.8840    0.0000 F   0  0  0  0  0  0  0  0  0  0  0  0
   14.1613    2.6160    0.0000 F   0  0  0  0  0  0  0  0  0  0  0  0
    6.3671   -1.8840    0.0000 F   0  0  0  0  0  0  0  0  0  0  0  0
    7.3671   -3.6160    0.0000 F   0  0  0  0  0  0  0  0  0  0  0  0
   16.0273    1.3840    0.0000 F   0  0  0  0  0  0  0  0  0  0  0  0
   15.0273    3.1160    0.0000 F   0  0  0  0  0  0  0  0  0  0  0  0
    5.5010   -2.3840    0.0000 F   0  0  0  0  0  0  0  0  0  0  0  0
    6.5010   -4.1160    0.0000 F   0  0  0  0  0  0  0  0  0  0  0  0
   16.8933    1.8840    0.0000 F   0  0  0  0  0  0  0  0  0  0  0  0
   15.8933    3.6160    0.0000 F   0  0  0  0  0  0  0  0  0  0  0  0
    4.6350   -2.8840    0.0000 F   0  0  0  0  0  0  0  0  0  0  0  0
    5.6350   -4.6160    0.0000 F   0  0  0  0  0  0  0  0  0  0  0  0
   17.7594    2.3840    0.0000 F   0  0  0  0  0  0  0  0  0  0  0  0
   16.7594    4.1160    0.0000 F   0  0  0  0  0  0  0  0  0  0  0  0
   18.9914    4.2500    0.0000 F   0  0  0  0  0  0  0  0  0  0  0  0
   18.6254    2.8840    0.0000 F   0  0  0  0  0  0  0  0  0  0  0  0
   17.6254    4.6160    0.0000 F   0  0  0  0  0  0  0  0  0  0  0  0
    2.5369   -4.2500    0.0000 O   0  0  0  0  0  0  0  0  0  0  0  0
   11.1972   -0.2500    0.0000 C   0  0  0  0  0  0  0  0  0  0  0  0
   12.0632    0.2500    0.0000 C   0  0  0  0  0  0  0  0  0  0  0  0
   10.3312   -0.7500    0.0000 C   0  0  0  0  0  0  0  0  0  0  0  0
    9.4651   -1.2500    0.0000 C   0  0  0  0  0  0  0  0  0  0  0  0
   12.9292    0.7500    0.0000 C   0  0  0  0  0  0  0  0  0  0  0  0
    8.5991   -1.7500    0.0000 C   0  0  0  0  0  0  0  0  0  0  0  0
   13.7953    1.2500    0.0000 C   0  0  0  0  0  0  0  0  0  0  0  0
    7.7331   -2.2500    0.0000 C   0  0  0  0  0  0  0  0  0  0  0  0
   14.6613    1.7500    0.0000 C   0  0  0  0  0  0  0  0  0  0  0  0
    6.8671   -2.7500    0.0000 C   0  0  0  0  0  0  0  0  0  0  0  0
   15.5273    2.2500    0.0000 C   0  0  0  0  0  0  0  0  0  0  0  0
    6.0010   -3.2500    0.0000 C   0  0  0  0  0  0  0  0  0  0  0  0
   16.3933    2.7500    0.0000 C   0  0  0  0  0  0  0  0  0  0  0  0
    5.1350   -3.7500    0.0000 C   0  0  0  0  0  0  0  0  0  0  0  0
   17.2594    3.2500    0.0000 C   0  0  0  0  0  0  0  0  0  0  0  0
    4.2690   -4.2500    0.0000 C   0  0  0  0  0  0  0  0  0  0  0  0
   18.1254    3.7500    0.0000 C   0  0  0  0  0  0  0  0  0  0  0  0
    3.4030   -3.7500    0.0000 C   0  0  0  0  0  0  0  0  0  0  0  0
    3.8705   -4.7250    0.0000 H   0  0  0  0  0  0  0  0  0  0  0  0
    4.6675   -4.7250    0.0000 H   0  0  0  0  0  0  0  0  0  0  0  0
    3.8015   -3.2751    0.0000 H   0  0  0  0  0  0  0  0  0  0  0  0
    3.0044   -3.2751    0.0000 H   0  0  0  0  0  0  0  0  0  0  0  0
    2.0000   -3.9400    0.0000 H   0  0  0  0  0  0  0  0  0  0  0  0
  1 35  1  0  0  0  0
  2 35  1  0  0  0  0
  3 36  1  0  0  0  0
  4 36  1  0  0  0  0
  5 37  1  0  0  0  0
  6 37  1  0  0  0  0
  7 39  1  0  0  0  0
  8 39  1  0  0  0  0
  9 38  1  0  0  0  0
 10 38  1  0  0  0  0
 11 40  1  0  0  0  0
 12 40  1  0  0  0  0
 13 41  1  0  0  0  0
 14 41  1  0  0  0  0
 15 42  1  0  0  0  0
 16 42  1  0  0  0  0
 17 43  1  0  0  0  0
 18 43  1  0  0  0  0
 19 44  1  0  0  0  0
 20 44  1  0  0  0  0
 21 45  1  0  0  0  0
 22 45  1  0  0  0  0
 23 46  1  0  0  0  0
 24 46  1  0  0  0  0
 25 47  1  0  0  0  0
 26 47  1  0  0  0  0
 27 48  1  0  0  0  0
 28 48  1  0  0  0  0
 29 49  1  0  0  0  0
 30 49  1  0  0  0  0
 31 51  1  0  0  0  0
 32 51  1  0  0  0  0
 33 51  1  0  0  0  0
 34 52  1  0  0  0  0
 34 57  1  0  0  0  0
 35 36  1  0  0  0  0
 35 37  1  0  0  0  0
 36 39  1  0  0  0  0
 37 38  1  0  0  0  0
 38 40  1  0  0  0  0
 39 41  1  0  0  0  0
 40 42  1  0  0  0  0
 41 43  1  0  0  0  0
 42 44  1  0  0  0  0
 43 45  1  0  0  0  0
 44 46  1  0  0  0  0
 45 47  1  0  0  0  0
 46 48  1  0  0  0  0
 47 49  1  0  0  0  0
 48 50  1  0  0  0  0
 49 51  1  0  0  0  0
 50 52  1  0  0  0  0
 50 53  1  0  0  0  0
 50 54  1  0  0  0  0
 52 55  1  0  0  0  0
 52 56  1  0  0  0  0
M  END
> <PUBCHEM_COMPOUND_CID>
103202

> <PUBCHEM_COMPOUND_CANONICALIZED>
1

> <PUBCHEM_CACTVS_COMPLEXITY>
1280

> <PUBCHEM_CACTVS_HBOND_ACCEPTOR>
34

> <PUBCHEM_CACTVS_HBOND_DONOR>
1

> <PUBCHEM_CACTVS_ROTATABLE_BOND>
16

> <PUBCHEM_CACTVS_SUBSKEYS>
AAADcYB4IcAAAAAAAAAAAAAAAAAAAAAAAAAAAAAAAAAAAAAAAAAAGwAACAAACACggBIAAAAAAgAAAAAAAAAAAAAAAAAAAAAAAAAAEAIAAAAAQAAEAAAAAAGAwKAAAAAAAAAAAAAAAAAAAAAAAAAAAAAAAA==

> <PUBCHEM_IUPAC_OPENEYE_NAME>
3,3,4,4,5,5,6,6,7,7,8,8,9,9,10,10,11,11,12,12,13,13,14,14,15,15,16,16,17,17,18,18,18-tritriacontafluorooctadecan-1-ol

> <PUBCHEM_IUPAC_CAS_NAME>
3,3,4,4,5,5,6,6,7,7,8,8,9,9,10,10,11,11,12,12,13,13,14,14,15,15,16,16,17,17,18,18,18-tritriacontafluoro-1-octadecanol

> <PUBCHEM_IUPAC_NAME_MARKUP>
3,3,4,4,5,5,6,6,7,7,8,8,9,9,10,10,11,11,12,12,13,13,14,14,15,15,16,16,17,17,18,18,18-tritriacontafluorooctadecan-1-ol

> <PUBCHEM_IUPAC_NAME>
3,3,4,4,5,5,6,6,7,7,8,8,9,9,10,10,11,11,12,12,13,13,14,14,15,15,16,16,17,17,18,18,18-tritriacontafluorooctadecan-1-ol

> <PUBCHEM_IUPAC_SYSTEMATIC_NAME>
3,3,4,4,5,5,6,6,7,7,8,8,9,9,10,10,11,11,12,12,13,13,14,14,15,15,16,16,17,17,18,18,18-tritriacontakis(fluoranyl)octadecan-1-ol

> <PUBCHEM_IUPAC_TRADITIONAL_NAME>
3,3,4,4,5,5,6,6,7,7,8,8,9,9,10,10,11,11,12,12,13,13,14,14,15,15,16,16,17,17,18,18,18-tritriacontafluorooctadecan-1-ol

> <PUBCHEM_IUPAC_INCHI>
InChI=1S/C18H5F33O/c19-3(20,1-2-52)4(21,22)5(23,24)6(25,26)7(27,28)8(29,30)9(31,32)10(33,34)11(35,36)12(37,38)13(39,40)14(41,42)15(43,44)16(45,46)17(47,48)18(49,50)51/h52H,1-2H2

> <PUBCHEM_IUPAC_INCHIKEY>
UYSGWTCETIRUHO-UHFFFAOYSA-N

> <PUBCHEM_XLOGP3_AA>
11.1

> <PUBCHEM_EXACT_MASS>
863.9813441

> <PUBCHEM_MOLECULAR_FORMULA>
C18H5F33O

> <PUBCHEM_MOLECULAR_WEIGHT>
864.2

> <PUBCHEM_SMILES>
C(CO)C(C(C(C(C(C(C(C(C(C(C(C(C(C(C(C(F)(F)F)(F)F)(F)F)(F)F)(F)F)(F)F)(F)F)(F)F)(F)F)(F)F)(F)F)(F)F)(F)F)(F)F)(F)F)(F)F

> <PUBCHEM_CONNECTIVITY_SMILES>
C(CO)C(C(C(C(C(C(C(C(C(C(C(C(C(C(C(C(F)(F)F)(F)F)(F)F)(F)F)(F)F)(F)F)(F)F)(F)F)(F)F)(F)F)(F)F)(F)F)(F)F)(F)F)(F)F)(F)F

> <PUBCHEM_CACTVS_TPSA>
20.2

> <PUBCHEM_MONOISOTOPIC_WEIGHT>
863.9813441

> <PUBCHEM_TOTAL_CHARGE>
0

> <PUBCHEM_HEAVY_ATOM_COUNT>
52

> <PUBCHEM_ATOM_DEF_STEREO_COUNT>
0

> <PUBCHEM_ATOM_UDEF_STEREO_COUNT>
0

> <PUBCHEM_BOND_DEF_STEREO_COUNT>
0

> <PUBCHEM_BOND_UDEF_STEREO_COUNT>
0

> <PUBCHEM_ISOTOPIC_ATOM_COUNT>
0

> <PUBCHEM_COMPONENT_COUNT>
1

> <PUBCHEM_CACTVS_TAUTO_COUNT>
-1

> <PUBCHEM_COORDINATE_TYPE>
1
5
255

$$$$
