104214
  -OEChem-05122608122D

125124  0     1  0  0  0  0  0999 V2000
   20.1865    1.6550    0.0000 O   0  0  0  0  0  0  0  0  0  0  0  0
   16.7224   -1.3450    0.0000 O   0  0  0  0  0  0  0  0  0  0  0  0
   21.0526    0.1550    0.0000 O   0  0  0  0  0  0  0  0  0  0  0  0
   17.5885    1.1550    0.0000 N   0  0  3  0  0  0  0  0  0  0  0  0
   11.5263    1.6550    0.0000 C   0  0  0  0  0  0  0  0  0  0  0  0
   10.6603    1.1550    0.0000 C   0  0  0  0  0  0  0  0  0  0  0  0
   12.3923    1.1550    0.0000 C   0  0  0  0  0  0  0  0  0  0  0  0
    9.7942    1.6550    0.0000 C   0  0  0  0  0  0  0  0  0  0  0  0
   13.2583    1.6550    0.0000 C   0  0  0  0  0  0  0  0  0  0  0  0
    8.9282    1.1550    0.0000 C   0  0  0  0  0  0  0  0  0  0  0  0
   14.1244    1.1550    0.0000 C   0  0  0  0  0  0  0  0  0  0  0  0
    8.0622    1.6550    0.0000 C   0  0  0  0  0  0  0  0  0  0  0  0
   14.9904    1.6550    0.0000 C   0  0  0  0  0  0  0  0  0  0  0  0
    7.1962    1.1550    0.0000 C   0  0  0  0  0  0  0  0  0  0  0  0
   27.9808    1.1550    0.0000 C   0  0  0  0  0  0  0  0  0  0  0  0
   28.8468    1.6550    0.0000 C   0  0  0  0  0  0  0  0  0  0  0  0
   27.1147    1.6550    0.0000 C   0  0  0  0  0  0  0  0  0  0  0  0
   15.8564    1.1550    0.0000 C   0  0  0  0  0  0  0  0  0  0  0  0
   29.7128    1.1550    0.0000 C   0  0  0  0  0  0  0  0  0  0  0  0
   26.2487    1.1550    0.0000 C   0  0  0  0  0  0  0  0  0  0  0  0
    6.3301    1.6550    0.0000 C   0  0  0  0  0  0  0  0  0  0  0  0
   30.5788    1.6550    0.0000 C   0  0  0  0  0  0  0  0  0  0  0  0
   25.3827    1.6550    0.0000 C   0  0  0  0  0  0  0  0  0  0  0  0
   16.7224    1.6550    0.0000 C   0  0  0  0  0  0  0  0  0  0  0  0
   31.4449    1.1550    0.0000 C   0  0  0  0  0  0  0  0  0  0  0  0
    5.4641    1.1550    0.0000 C   0  0  0  0  0  0  0  0  0  0  0  0
   24.5167    1.1550    0.0000 C   0  0  0  0  0  0  0  0  0  0  0  0
   32.3109    1.6550    0.0000 C   0  0  0  0  0  0  0  0  0  0  0  0
   23.6506    1.6550    0.0000 C   0  0  0  0  0  0  0  0  0  0  0  0
    4.5981    1.6550    0.0000 C   0  0  0  0  0  0  0  0  0  0  0  0
   33.1769    1.1550    0.0000 C   0  0  0  0  0  0  0  0  0  0  0  0
   18.4545    1.6550    0.0000 C   0  0  0  0  0  0  0  0  0  0  0  0
   22.7846    1.1550    0.0000 C   0  0  0  0  0  0  0  0  0  0  0  0
   17.5885    0.1550    0.0000 C   0  0  0  0  0  0  0  0  0  0  0  0
    3.7321    1.1550    0.0000 C   0  0  0  0  0  0  0  0  0  0  0  0
   34.0429    1.6550    0.0000 C   0  0  0  0  0  0  0  0  0  0  0  0
   21.9186    1.6550    0.0000 C   0  0  0  0  0  0  0  0  0  0  0  0
   19.3205    1.1550    0.0000 C   0  0  0  0  0  0  0  0  0  0  0  0
    2.8660    1.6550    0.0000 C   0  0  0  0  0  0  0  0  0  0  0  0
   34.9090    1.1550    0.0000 C   0  0  0  0  0  0  0  0  0  0  0  0
   16.7224   -0.3450    0.0000 C   0  0  0  0  0  0  0  0  0  0  0  0
   21.0526    1.1550    0.0000 C   0  0  0  0  0  0  0  0  0  0  0  0
    2.0000    1.1550    0.0000 C   0  0  0  0  0  0  0  0  0  0  0  0
   35.7750    1.6550    0.0000 C   0  0  0  0  0  0  0  0  0  0  0  0
   11.9248    2.1300    0.0000 H   0  0  0  0  0  0  0  0  0  0  0  0
   11.1278    2.1300    0.0000 H   0  0  0  0  0  0  0  0  0  0  0  0
   10.2617    0.6801    0.0000 H   0  0  0  0  0  0  0  0  0  0  0  0
   11.0588    0.6801    0.0000 H   0  0  0  0  0  0  0  0  0  0  0  0
   11.9938    0.6801    0.0000 H   0  0  0  0  0  0  0  0  0  0  0  0
   12.7908    0.6801    0.0000 H   0  0  0  0  0  0  0  0  0  0  0  0
   10.1928    2.1300    0.0000 H   0  0  0  0  0  0  0  0  0  0  0  0
    9.3957    2.1300    0.0000 H   0  0  0  0  0  0  0  0  0  0  0  0
   13.6569    2.1300    0.0000 H   0  0  0  0  0  0  0  0  0  0  0  0
   12.8598    2.1300    0.0000 H   0  0  0  0  0  0  0  0  0  0  0  0
    8.5297    0.6801    0.0000 H   0  0  0  0  0  0  0  0  0  0  0  0
    9.3267    0.6801    0.0000 H   0  0  0  0  0  0  0  0  0  0  0  0
   13.7258    0.6801    0.0000 H   0  0  0  0  0  0  0  0  0  0  0  0
   14.5229    0.6801    0.0000 H   0  0  0  0  0  0  0  0  0  0  0  0
    8.4607    2.1300    0.0000 H   0  0  0  0  0  0  0  0  0  0  0  0
    7.6637    2.1300    0.0000 H   0  0  0  0  0  0  0  0  0  0  0  0
   15.3889    2.1300    0.0000 H   0  0  0  0  0  0  0  0  0  0  0  0
   14.5919    2.1300    0.0000 H   0  0  0  0  0  0  0  0  0  0  0  0
    6.7976    0.6801    0.0000 H   0  0  0  0  0  0  0  0  0  0  0  0
    7.5947    0.6801    0.0000 H   0  0  0  0  0  0  0  0  0  0  0  0
   27.5822    0.6801    0.0000 H   0  0  0  0  0  0  0  0  0  0  0  0
   28.3793    0.6801    0.0000 H   0  0  0  0  0  0  0  0  0  0  0  0
   29.2453    2.1300    0.0000 H   0  0  0  0  0  0  0  0  0  0  0  0
   28.4483    2.1300    0.0000 H   0  0  0  0  0  0  0  0  0  0  0  0
   27.5133    2.1300    0.0000 H   0  0  0  0  0  0  0  0  0  0  0  0
   26.7162    2.1300    0.0000 H   0  0  0  0  0  0  0  0  0  0  0  0
   15.4579    0.6801    0.0000 H   0  0  0  0  0  0  0  0  0  0  0  0
   16.2549    0.6801    0.0000 H   0  0  0  0  0  0  0  0  0  0  0  0
   29.3143    0.6801    0.0000 H   0  0  0  0  0  0  0  0  0  0  0  0
   30.1113    0.6801    0.0000 H   0  0  0  0  0  0  0  0  0  0  0  0
   25.8502    0.6801    0.0000 H   0  0  0  0  0  0  0  0  0  0  0  0
   26.6472    0.6801    0.0000 H   0  0  0  0  0  0  0  0  0  0  0  0
    6.7287    2.1300    0.0000 H   0  0  0  0  0  0  0  0  0  0  0  0
    5.9316    2.1300    0.0000 H   0  0  0  0  0  0  0  0  0  0  0  0
   30.9774    2.1300    0.0000 H   0  0  0  0  0  0  0  0  0  0  0  0
   30.1803    2.1300    0.0000 H   0  0  0  0  0  0  0  0  0  0  0  0
   25.7812    2.1300    0.0000 H   0  0  0  0  0  0  0  0  0  0  0  0
   24.9842    2.1300    0.0000 H   0  0  0  0  0  0  0  0  0  0  0  0
   17.1210    2.1300    0.0000 H   0  0  0  0  0  0  0  0  0  0  0  0
   16.3239    2.1300    0.0000 H   0  0  0  0  0  0  0  0  0  0  0  0
   31.0463    0.6801    0.0000 H   0  0  0  0  0  0  0  0  0  0  0  0
   31.8434    0.6801    0.0000 H   0  0  0  0  0  0  0  0  0  0  0  0
    5.0656    0.6801    0.0000 H   0  0  0  0  0  0  0  0  0  0  0  0
    5.8626    0.6801    0.0000 H   0  0  0  0  0  0  0  0  0  0  0  0
   24.1181    0.6801    0.0000 H   0  0  0  0  0  0  0  0  0  0  0  0
   24.9152    0.6801    0.0000 H   0  0  0  0  0  0  0  0  0  0  0  0
   32.7094    2.1300    0.0000 H   0  0  0  0  0  0  0  0  0  0  0  0
   31.9124    2.1300    0.0000 H   0  0  0  0  0  0  0  0  0  0  0  0
   24.0492    2.1300    0.0000 H   0  0  0  0  0  0  0  0  0  0  0  0
   23.2521    2.1300    0.0000 H   0  0  0  0  0  0  0  0  0  0  0  0
    4.9966    2.1300    0.0000 H   0  0  0  0  0  0  0  0  0  0  0  0
    4.1996    2.1300    0.0000 H   0  0  0  0  0  0  0  0  0  0  0  0
   32.7784    0.6801    0.0000 H   0  0  0  0  0  0  0  0  0  0  0  0
   33.5754    0.6801    0.0000 H   0  0  0  0  0  0  0  0  0  0  0  0
   18.8530    2.1300    0.0000 H   0  0  0  0  0  0  0  0  0  0  0  0
   18.0560    2.1300    0.0000 H   0  0  0  0  0  0  0  0  0  0  0  0
   22.3861    0.6801    0.0000 H   0  0  0  0  0  0  0  0  0  0  0  0
   23.1831    0.6801    0.0000 H   0  0  0  0  0  0  0  0  0  0  0  0
   17.8005   -0.4276    0.0000 H   0  0  0  0  0  0  0  0  0  0  0  0
   18.1990    0.2627    0.0000 H   0  0  0  0  0  0  0  0  0  0  0  0
    3.3335    0.6801    0.0000 H   0  0  0  0  0  0  0  0  0  0  0  0
    4.1306    0.6801    0.0000 H   0  0  0  0  0  0  0  0  0  0  0  0
   34.4415    2.1300    0.0000 H   0  0  0  0  0  0  0  0  0  0  0  0
   33.6444    2.1300    0.0000 H   0  0  0  0  0  0  0  0  0  0  0  0
   22.3171    2.1300    0.0000 H   0  0  0  0  0  0  0  0  0  0  0  0
   21.5201    2.1300    0.0000 H   0  0  0  0  0  0  0  0  0  0  0  0
   18.9220    0.6801    0.0000 H   0  0  0  0  0  0  0  0  0  0  0  0
   19.7190    0.6801    0.0000 H   0  0  0  0  0  0  0  0  0  0  0  0
    3.2646    2.1300    0.0000 H   0  0  0  0  0  0  0  0  0  0  0  0
    2.4675    2.1300    0.0000 H   0  0  0  0  0  0  0  0  0  0  0  0
   34.5104    0.6801    0.0000 H   0  0  0  0  0  0  0  0  0  0  0  0
   35.3075    0.6801    0.0000 H   0  0  0  0  0  0  0  0  0  0  0  0
   16.5104    0.2376    0.0000 H   0  0  0  0  0  0  0  0  0  0  0  0
   16.1119   -0.4527    0.0000 H   0  0  0  0  0  0  0  0  0  0  0  0
    1.6900    1.6919    0.0000 H   0  0  0  0  0  0  0  0  0  0  0  0
    1.4631    0.8450    0.0000 H   0  0  0  0  0  0  0  0  0  0  0  0
    2.3100    0.6181    0.0000 H   0  0  0  0  0  0  0  0  0  0  0  0
   36.0850    1.1181    0.0000 H   0  0  0  0  0  0  0  0  0  0  0  0
   36.3119    1.9650    0.0000 H   0  0  0  0  0  0  0  0  0  0  0  0
   35.4650    2.1919    0.0000 H   0  0  0  0  0  0  0  0  0  0  0  0
   16.1855   -1.6550    0.0000 H   0  0  0  0  0  0  0  0  0  0  0  0
  1 38  1  0  0  0  0
  1 42  1  0  0  0  0
  2 41  1  0  0  0  0
  2125  1  0  0  0  0
  3 42  2  0  0  0  0
  4 24  1  0  0  0  0
  4 32  1  0  0  0  0
  4 34  1  0  0  0  0
  5  6  1  0  0  0  0
  5  7  1  0  0  0  0
  5 45  1  0  0  0  0
  5 46  1  0  0  0  0
  6  8  1  0  0  0  0
  6 47  1  0  0  0  0
  6 48  1  0  0  0  0
  7  9  1  0  0  0  0
  7 49  1  0  0  0  0
  7 50  1  0  0  0  0
  8 10  1  0  0  0  0
  8 51  1  0  0  0  0
  8 52  1  0  0  0  0
  9 11  1  0  0  0  0
  9 53  1  0  0  0  0
  9 54  1  0  0  0  0
 10 12  1  0  0  0  0
 10 55  1  0  0  0  0
 10 56  1  0  0  0  0
 11 13  1  0  0  0  0
 11 57  1  0  0  0  0
 11 58  1  0  0  0  0
 12 14  1  0  0  0  0
 12 59  1  0  0  0  0
 12 60  1  0  0  0  0
 13 18  1  0  0  0  0
 13 61  1  0  0  0  0
 13 62  1  0  0  0  0
 14 21  1  0  0  0  0
 14 63  1  0  0  0  0
 14 64  1  0  0  0  0
 15 16  1  0  0  0  0
 15 17  1  0  0  0  0
 15 65  1  0  0  0  0
 15 66  1  0  0  0  0
 16 19  1  0  0  0  0
 16 67  1  0  0  0  0
 16 68  1  0  0  0  0
 17 20  1  0  0  0  0
 17 69  1  0  0  0  0
 17 70  1  0  0  0  0
 18 24  1  0  0  0  0
 18 71  1  0  0  0  0
 18 72  1  0  0  0  0
 19 22  1  0  0  0  0
 19 73  1  0  0  0  0
 19 74  1  0  0  0  0
 20 23  1  0  0  0  0
 20 75  1  0  0  0  0
 20 76  1  0  0  0  0
 21 26  1  0  0  0  0
 21 77  1  0  0  0  0
 21 78  1  0  0  0  0
 22 25  1  0  0  0  0
 22 79  1  0  0  0  0
 22 80  1  0  0  0  0
 23 27  1  0  0  0  0
 23 81  1  0  0  0  0
 23 82  1  0  0  0  0
 24 83  1  0  0  0  0
 24 84  1  0  0  0  0
 25 28  1  0  0  0  0
 25 85  1  0  0  0  0
 25 86  1  0  0  0  0
 26 30  1  0  0  0  0
 26 87  1  0  0  0  0
 26 88  1  0  0  0  0
 27 29  1  0  0  0  0
 27 89  1  0  0  0  0
 27 90  1  0  0  0  0
 28 31  1  0  0  0  0
 28 91  1  0  0  0  0
 28 92  1  0  0  0  0
 29 33  1  0  0  0  0
 29 93  1  0  0  0  0
 29 94  1  0  0  0  0
 30 35  1  0  0  0  0
 30 95  1  0  0  0  0
 30 96  1  0  0  0  0
 31 36  1  0  0  0  0
 31 97  1  0  0  0  0
 31 98  1  0  0  0  0
 32 38  1  0  0  0  0
 32 99  1  0  0  0  0
 32100  1  0  0  0  0
 33 37  1  0  0  0  0
 33101  1  0  0  0  0
 33102  1  0  0  0  0
 34 41  1  0  0  0  0
 34103  1  0  0  0  0
 34104  1  0  0  0  0
 35 39  1  0  0  0  0
 35105  1  0  0  0  0
 35106  1  0  0  0  0
 36 40  1  0  0  0  0
 36107  1  0  0  0  0
 36108  1  0  0  0  0
 37 42  1  0  0  0  0
 37109  1  0  0  0  0
 37110  1  0  0  0  0
 38111  1  0  0  0  0
 38112  1  0  0  0  0
 39 43  1  0  0  0  0
 39113  1  0  0  0  0
 39114  1  0  0  0  0
 40 44  1  0  0  0  0
 40115  1  0  0  0  0
 40116  1  0  0  0  0
 41117  1  0  0  0  0
 41118  1  0  0  0  0
 43119  1  0  0  0  0
 43120  1  0  0  0  0
 43121  1  0  0  0  0
 44122  1  0  0  0  0
 44123  1  0  0  0  0
 44124  1  0  0  0  0
M  END
> <PUBCHEM_COMPOUND_CID>
104214

> <PUBCHEM_COMPOUND_CANONICALIZED>
1

> <PUBCHEM_CACTVS_COMPLEXITY>
541

> <PUBCHEM_CACTVS_HBOND_ACCEPTOR>
4

> <PUBCHEM_CACTVS_HBOND_DONOR>
1

> <PUBCHEM_CACTVS_ROTATABLE_BOND>
39

> <PUBCHEM_CACTVS_SUBSKEYS>
AAADcfB+MAAAAAAAAAAAAAAAAAAAAAAAAAAAAAAAAAAAAAAAAAAAHgAACAAACADhgAYCCAMABgAIAACQCAAAAAAAAAAAAAEIAAACEBIAgAAHAAAEAACQAAGYyKCAAAAAAAAAAAAAAAAAAAAAAAAAAAAAAA==

> <PUBCHEM_IUPAC_OPENEYE_NAME>
2-[2-hydroxyethyl(octadecyl)amino]ethyl octadecanoate

> <PUBCHEM_IUPAC_CAS_NAME>
octadecanoic acid 2-[2-hydroxyethyl(octadecyl)amino]ethyl ester

> <PUBCHEM_IUPAC_NAME_MARKUP>
2-[2-hydroxyethyl(octadecyl)amino]ethyl octadecanoate

> <PUBCHEM_IUPAC_NAME>
2-[2-hydroxyethyl(octadecyl)amino]ethyl octadecanoate

> <PUBCHEM_IUPAC_SYSTEMATIC_NAME>
2-[2-hydroxyethyl(octadecyl)amino]ethyl octadecanoate

> <PUBCHEM_IUPAC_TRADITIONAL_NAME>
stearic acid 2-[2-hydroxyethyl(stearyl)amino]ethyl ester

> <PUBCHEM_IUPAC_INCHI>
InChI=1S/C40H81NO3/c1-3-5-7-9-11-13-15-17-19-21-23-25-27-29-31-33-35-41(36-38-42)37-39-44-40(43)34-32-30-28-26-24-22-20-18-16-14-12-10-8-6-4-2/h42H,3-39H2,1-2H3

> <PUBCHEM_IUPAC_INCHIKEY>
KHYNLKWLPONHOE-UHFFFAOYSA-N

> <PUBCHEM_XLOGP3_AA>
16.7

> <PUBCHEM_EXACT_MASS>
623.62164545

> <PUBCHEM_MOLECULAR_FORMULA>
C40H81NO3

> <PUBCHEM_MOLECULAR_WEIGHT>
624.1

> <PUBCHEM_SMILES>
CCCCCCCCCCCCCCCCCCN(CCO)CCOC(=O)CCCCCCCCCCCCCCCCC

> <PUBCHEM_CONNECTIVITY_SMILES>
CCCCCCCCCCCCCCCCCCN(CCO)CCOC(=O)CCCCCCCCCCCCCCCCC

> <PUBCHEM_CACTVS_TPSA>
49.8

> <PUBCHEM_MONOISOTOPIC_WEIGHT>
623.62164545

> <PUBCHEM_TOTAL_CHARGE>
0

> <PUBCHEM_HEAVY_ATOM_COUNT>
44

> <PUBCHEM_ATOM_DEF_STEREO_COUNT>
0

> <PUBCHEM_ATOM_UDEF_STEREO_COUNT>
0

> <PUBCHEM_BOND_DEF_STEREO_COUNT>
0

> <PUBCHEM_BOND_UDEF_STEREO_COUNT>
0

> <PUBCHEM_ISOTOPIC_ATOM_COUNT>
0

> <PUBCHEM_COMPONENT_COUNT>
1

> <PUBCHEM_CACTVS_TAUTO_COUNT>
-1

> <PUBCHEM_COORDINATE_TYPE>
1
5
255

$$$$
