104247
  -OEChem-05122609432D

 27 26  0     0  0  0  0  0  0999 V2000
    7.6962   -1.6160    0.0000 F   0  0  0  0  0  0  0  0  0  0  0  0
    6.6962    0.1160    0.0000 F   0  0  0  0  0  0  0  0  0  0  0  0
    7.5622    0.6160    0.0000 F   0  0  0  0  0  0  0  0  0  0  0  0
    8.5622   -1.1160    0.0000 F   0  0  0  0  0  0  0  0  0  0  0  0
    8.4282    1.1160    0.0000 F   0  0  0  0  0  0  0  0  0  0  0  0
    9.4282   -0.6160    0.0000 F   0  0  0  0  0  0  0  0  0  0  0  0
   10.6603    1.2500    0.0000 F   0  0  0  0  0  0  0  0  0  0  0  0
   10.2942   -0.1160    0.0000 F   0  0  0  0  0  0  0  0  0  0  0  0
    9.2942    1.6160    0.0000 F   0  0  0  0  0  0  0  0  0  0  0  0
    4.5981   -1.2500    0.0000 O   0  0  0  0  0  0  0  0  0  0  0  0
    3.7321    0.2500    0.0000 O   0  0  0  0  0  0  0  0  0  0  0  0
    7.1962   -0.7500    0.0000 C   0  0  0  0  0  0  0  0  0  0  0  0
    8.0622   -0.2500    0.0000 C   0  0  0  0  0  0  0  0  0  0  0  0
    6.3301   -1.2500    0.0000 C   0  0  0  0  0  0  0  0  0  0  0  0
    8.9282    0.2500    0.0000 C   0  0  0  0  0  0  0  0  0  0  0  0
    5.4641   -0.7500    0.0000 C   0  0  0  0  0  0  0  0  0  0  0  0
    9.7942    0.7500    0.0000 C   0  0  0  0  0  0  0  0  0  0  0  0
    3.7321   -0.7500    0.0000 C   0  0  0  0  0  0  0  0  0  0  0  0
    2.8660   -1.2500    0.0000 C   0  0  0  0  0  0  0  0  0  0  0  0
    2.0000   -0.7500    0.0000 C   0  0  0  0  0  0  0  0  0  0  0  0
    5.9316   -1.7250    0.0000 H   0  0  0  0  0  0  0  0  0  0  0  0
    6.7287   -1.7250    0.0000 H   0  0  0  0  0  0  0  0  0  0  0  0
    5.8626   -0.2751    0.0000 H   0  0  0  0  0  0  0  0  0  0  0  0
    5.0656   -0.2751    0.0000 H   0  0  0  0  0  0  0  0  0  0  0  0
    2.8660   -1.8700    0.0000 H   0  0  0  0  0  0  0  0  0  0  0  0
    2.0000   -0.1300    0.0000 H   0  0  0  0  0  0  0  0  0  0  0  0
    1.4631   -1.0600    0.0000 H   0  0  0  0  0  0  0  0  0  0  0  0
  1 12  1  0  0  0  0
  2 12  1  0  0  0  0
  3 13  1  0  0  0  0
  4 13  1  0  0  0  0
  5 15  1  0  0  0  0
  6 15  1  0  0  0  0
  7 17  1  0  0  0  0
  8 17  1  0  0  0  0
  9 17  1  0  0  0  0
 10 16  1  0  0  0  0
 10 18  1  0  0  0  0
 11 18  2  0  0  0  0
 12 13  1  0  0  0  0
 12 14  1  0  0  0  0
 13 15  1  0  0  0  0
 14 16  1  0  0  0  0
 14 21  1  0  0  0  0
 14 22  1  0  0  0  0
 15 17  1  0  0  0  0
 16 23  1  0  0  0  0
 16 24  1  0  0  0  0
 18 19  1  0  0  0  0
 19 20  2  0  0  0  0
 19 25  1  0  0  0  0
 20 26  1  0  0  0  0
 20 27  1  0  0  0  0
M  END
> <PUBCHEM_COMPOUND_CID>
104247

> <PUBCHEM_COMPOUND_CANONICALIZED>
1

> <PUBCHEM_CACTVS_COMPLEXITY>
372

> <PUBCHEM_CACTVS_HBOND_ACCEPTOR>
11

> <PUBCHEM_CACTVS_HBOND_DONOR>
0

> <PUBCHEM_CACTVS_ROTATABLE_BOND>
7

> <PUBCHEM_CACTVS_SUBSKEYS>
AAADcYBwMcAAAAAAAAAAAAAAAAAAAAAAAAAAAAAAAAAAAAAAAAAAGwAAAAAACACggBIACAAABACIACDSCAAAAAAAAAAIAAAAAEAABAIAIAACAAAEAAAAIIGAQAAAAAAAAAAAAAAAAAAAAAAAAAAAAAAAAA==

> <PUBCHEM_IUPAC_OPENEYE_NAME>
3,3,4,4,5,5,6,6,6-nonafluorohexyl prop-2-enoate

> <PUBCHEM_IUPAC_CAS_NAME>
2-propenoic acid 3,3,4,4,5,5,6,6,6-nonafluorohexyl ester

> <PUBCHEM_IUPAC_NAME_MARKUP>
3,3,4,4,5,5,6,6,6-nonafluorohexyl prop-2-enoate

> <PUBCHEM_IUPAC_NAME>
3,3,4,4,5,5,6,6,6-nonafluorohexyl prop-2-enoate

> <PUBCHEM_IUPAC_SYSTEMATIC_NAME>
3,3,4,4,5,5,6,6,6-nonakis(fluoranyl)hexyl prop-2-enoate

> <PUBCHEM_IUPAC_TRADITIONAL_NAME>
acrylic acid 3,3,4,4,5,5,6,6,6-nonafluorohexyl ester

> <PUBCHEM_IUPAC_INCHI>
InChI=1S/C9H7F9O2/c1-2-5(19)20-4-3-6(10,11)7(12,13)8(14,15)9(16,17)18/h2H,1,3-4H2

> <PUBCHEM_IUPAC_INCHIKEY>
GYUPEJSTJSFVRR-UHFFFAOYSA-N

> <PUBCHEM_XLOGP3_AA>
4.2

> <PUBCHEM_EXACT_MASS>
318.03023292

> <PUBCHEM_MOLECULAR_FORMULA>
C9H7F9O2

> <PUBCHEM_MOLECULAR_WEIGHT>
318.14

> <PUBCHEM_SMILES>
C=CC(=O)OCCC(C(C(C(F)(F)F)(F)F)(F)F)(F)F

> <PUBCHEM_CONNECTIVITY_SMILES>
C=CC(=O)OCCC(C(C(C(F)(F)F)(F)F)(F)F)(F)F

> <PUBCHEM_CACTVS_TPSA>
26.3

> <PUBCHEM_MONOISOTOPIC_WEIGHT>
318.03023292

> <PUBCHEM_TOTAL_CHARGE>
0

> <PUBCHEM_HEAVY_ATOM_COUNT>
20

> <PUBCHEM_ATOM_DEF_STEREO_COUNT>
0

> <PUBCHEM_ATOM_UDEF_STEREO_COUNT>
0

> <PUBCHEM_BOND_DEF_STEREO_COUNT>
0

> <PUBCHEM_BOND_UDEF_STEREO_COUNT>
0

> <PUBCHEM_ISOTOPIC_ATOM_COUNT>
0

> <PUBCHEM_COMPONENT_COUNT>
1

> <PUBCHEM_CACTVS_TAUTO_COUNT>
-1

> <PUBCHEM_COORDINATE_TYPE>
1
5
255

$$$$
