10436013
  -OEChem-05122609432D

 89 88  0     0  0  0  0  0  0999 V2000
   11.5263    3.5000    0.0000 O   0  0  0  0  0  0  0  0  0  0  0  0
    8.9282    3.0000    0.0000 O   0  0  0  0  0  0  0  0  0  0  0  0
    9.7942    1.5000    0.0000 O   0  0  0  0  0  0  0  0  0  0  0  0
   12.3923    2.0000    0.0000 O   0  0  0  0  0  0  0  0  0  0  0  0
    8.0622    4.5000    0.0000 O   0  0  0  0  0  0  0  0  0  0  0  0
   10.6603    0.0000    0.0000 O   0  0  0  0  0  0  0  0  0  0  0  0
   15.8564    3.0000    0.0000 C   0  0  0  0  0  0  0  0  0  0  0  0
   16.7224    3.5000    0.0000 C   0  0  0  0  0  0  0  0  0  0  0  0
   14.9904    3.5000    0.0000 C   0  0  0  0  0  0  0  0  0  0  0  0
   17.5885    3.0000    0.0000 C   0  0  0  0  0  0  0  0  0  0  0  0
   14.1244    3.0000    0.0000 C   0  0  0  0  0  0  0  0  0  0  0  0
   18.4545    3.5000    0.0000 C   0  0  0  0  0  0  0  0  0  0  0  0
   13.2583    3.5000    0.0000 C   0  0  0  0  0  0  0  0  0  0  0  0
   19.3205    3.0000    0.0000 C   0  0  0  0  0  0  0  0  0  0  0  0
    5.4641    3.0000    0.0000 C   0  0  0  0  0  0  0  0  0  0  0  0
    8.0622   -1.5000    0.0000 C   0  0  0  0  0  0  0  0  0  0  0  0
    4.5981    3.5000    0.0000 C   0  0  0  0  0  0  0  0  0  0  0  0
    8.0622   -2.5000    0.0000 C   0  0  0  0  0  0  0  0  0  0  0  0
    6.3301    3.5000    0.0000 C   0  0  0  0  0  0  0  0  0  0  0  0
    8.9282   -1.0000    0.0000 C   0  0  0  0  0  0  0  0  0  0  0  0
    3.7321    3.0000    0.0000 C   0  0  0  0  0  0  0  0  0  0  0  0
    7.1962   -3.0000    0.0000 C   0  0  0  0  0  0  0  0  0  0  0  0
   10.6603    3.0000    0.0000 C   0  0  0  0  0  0  0  0  0  0  0  0
    7.1962    3.0000    0.0000 C   0  0  0  0  0  0  0  0  0  0  0  0
    8.9282    0.0000    0.0000 C   0  0  0  0  0  0  0  0  0  0  0  0
   12.3923    3.0000    0.0000 C   0  0  0  0  0  0  0  0  0  0  0  0
    2.8660    3.5000    0.0000 C   0  0  0  0  0  0  0  0  0  0  0  0
    7.1962   -4.0000    0.0000 C   0  0  0  0  0  0  0  0  0  0  0  0
    9.7942    3.5000    0.0000 C   0  0  0  0  0  0  0  0  0  0  0  0
   10.6603    2.0000    0.0000 C   0  0  0  0  0  0  0  0  0  0  0  0
   20.1865    3.5000    0.0000 C   0  0  0  0  0  0  0  0  0  0  0  0
    8.0622    3.5000    0.0000 C   0  0  0  0  0  0  0  0  0  0  0  0
    9.7942    0.5000    0.0000 C   0  0  0  0  0  0  0  0  0  0  0  0
    2.0000    3.0000    0.0000 C   0  0  0  0  0  0  0  0  0  0  0  0
    6.3301   -4.5000    0.0000 C   0  0  0  0  0  0  0  0  0  0  0  0
   15.4579    2.5251    0.0000 H   0  0  0  0  0  0  0  0  0  0  0  0
   16.2549    2.5251    0.0000 H   0  0  0  0  0  0  0  0  0  0  0  0
   17.1210    3.9750    0.0000 H   0  0  0  0  0  0  0  0  0  0  0  0
   16.3239    3.9750    0.0000 H   0  0  0  0  0  0  0  0  0  0  0  0
   15.3889    3.9750    0.0000 H   0  0  0  0  0  0  0  0  0  0  0  0
   14.5919    3.9750    0.0000 H   0  0  0  0  0  0  0  0  0  0  0  0
   17.1899    2.5251    0.0000 H   0  0  0  0  0  0  0  0  0  0  0  0
   17.9870    2.5251    0.0000 H   0  0  0  0  0  0  0  0  0  0  0  0
   13.7258    2.5251    0.0000 H   0  0  0  0  0  0  0  0  0  0  0  0
   14.5229    2.5251    0.0000 H   0  0  0  0  0  0  0  0  0  0  0  0
   18.8530    3.9750    0.0000 H   0  0  0  0  0  0  0  0  0  0  0  0
   18.0560    3.9750    0.0000 H   0  0  0  0  0  0  0  0  0  0  0  0
   13.6569    3.9750    0.0000 H   0  0  0  0  0  0  0  0  0  0  0  0
   12.8598    3.9750    0.0000 H   0  0  0  0  0  0  0  0  0  0  0  0
   18.9220    2.5251    0.0000 H   0  0  0  0  0  0  0  0  0  0  0  0
   19.7190    2.5251    0.0000 H   0  0  0  0  0  0  0  0  0  0  0  0
    5.0656    2.5251    0.0000 H   0  0  0  0  0  0  0  0  0  0  0  0
    5.8626    2.5251    0.0000 H   0  0  0  0  0  0  0  0  0  0  0  0
    7.8501   -0.9174    0.0000 H   0  0  0  0  0  0  0  0  0  0  0  0
    7.4516   -1.6077    0.0000 H   0  0  0  0  0  0  0  0  0  0  0  0
    4.9966    3.9750    0.0000 H   0  0  0  0  0  0  0  0  0  0  0  0
    4.1996    3.9750    0.0000 H   0  0  0  0  0  0  0  0  0  0  0  0
    8.2742   -3.0826    0.0000 H   0  0  0  0  0  0  0  0  0  0  0  0
    8.6728   -2.3923    0.0000 H   0  0  0  0  0  0  0  0  0  0  0  0
    6.7287    3.9750    0.0000 H   0  0  0  0  0  0  0  0  0  0  0  0
    5.9316    3.9750    0.0000 H   0  0  0  0  0  0  0  0  0  0  0  0
    9.1403   -1.5826    0.0000 H   0  0  0  0  0  0  0  0  0  0  0  0
    9.5388   -0.8923    0.0000 H   0  0  0  0  0  0  0  0  0  0  0  0
    3.3335    2.5251    0.0000 H   0  0  0  0  0  0  0  0  0  0  0  0
    4.1306    2.5251    0.0000 H   0  0  0  0  0  0  0  0  0  0  0  0
    6.9841   -2.4174    0.0000 H   0  0  0  0  0  0  0  0  0  0  0  0
    6.5856   -3.1077    0.0000 H   0  0  0  0  0  0  0  0  0  0  0  0
   11.1972    2.6900    0.0000 H   0  0  0  0  0  0  0  0  0  0  0  0
    6.7976    2.5251    0.0000 H   0  0  0  0  0  0  0  0  0  0  0  0
    7.5947    2.5251    0.0000 H   0  0  0  0  0  0  0  0  0  0  0  0
    8.7162    0.5826    0.0000 H   0  0  0  0  0  0  0  0  0  0  0  0
    8.3176   -0.1077    0.0000 H   0  0  0  0  0  0  0  0  0  0  0  0
    3.2646    3.9750    0.0000 H   0  0  0  0  0  0  0  0  0  0  0  0
    2.4675    3.9750    0.0000 H   0  0  0  0  0  0  0  0  0  0  0  0
    7.4082   -4.5826    0.0000 H   0  0  0  0  0  0  0  0  0  0  0  0
    7.8067   -3.8923    0.0000 H   0  0  0  0  0  0  0  0  0  0  0  0
   10.1928    3.9750    0.0000 H   0  0  0  0  0  0  0  0  0  0  0  0
    9.3957    3.9750    0.0000 H   0  0  0  0  0  0  0  0  0  0  0  0
   10.8723    1.4174    0.0000 H   0  0  0  0  0  0  0  0  0  0  0  0
   11.2708    2.1077    0.0000 H   0  0  0  0  0  0  0  0  0  0  0  0
   20.4965    2.9631    0.0000 H   0  0  0  0  0  0  0  0  0  0  0  0
   20.7235    3.8100    0.0000 H   0  0  0  0  0  0  0  0  0  0  0  0
   19.8765    4.0369    0.0000 H   0  0  0  0  0  0  0  0  0  0  0  0
    1.6900    3.5369    0.0000 H   0  0  0  0  0  0  0  0  0  0  0  0
    1.4631    2.6900    0.0000 H   0  0  0  0  0  0  0  0  0  0  0  0
    2.3100    2.4631    0.0000 H   0  0  0  0  0  0  0  0  0  0  0  0
    6.0201   -3.9631    0.0000 H   0  0  0  0  0  0  0  0  0  0  0  0
    5.7932   -4.8100    0.0000 H   0  0  0  0  0  0  0  0  0  0  0  0
    6.6401   -5.0369    0.0000 H   0  0  0  0  0  0  0  0  0  0  0  0
  1 23  1  0  0  0  0
  1 26  1  0  0  0  0
  2 29  1  0  0  0  0
  2 32  1  0  0  0  0
  3 30  1  0  0  0  0
  3 33  1  0  0  0  0
  4 26  2  0  0  0  0
  5 32  2  0  0  0  0
  6 33  2  0  0  0  0
  7  8  1  0  0  0  0
  7  9  1  0  0  0  0
  7 36  1  0  0  0  0
  7 37  1  0  0  0  0
  8 10  1  0  0  0  0
  8 38  1  0  0  0  0
  8 39  1  0  0  0  0
  9 11  1  0  0  0  0
  9 40  1  0  0  0  0
  9 41  1  0  0  0  0
 10 12  1  0  0  0  0
 10 42  1  0  0  0  0
 10 43  1  0  0  0  0
 11 13  1  0  0  0  0
 11 44  1  0  0  0  0
 11 45  1  0  0  0  0
 12 14  1  0  0  0  0
 12 46  1  0  0  0  0
 12 47  1  0  0  0  0
 13 26  1  0  0  0  0
 13 48  1  0  0  0  0
 13 49  1  0  0  0  0
 14 31  1  0  0  0  0
 14 50  1  0  0  0  0
 14 51  1  0  0  0  0
 15 17  1  0  0  0  0
 15 19  1  0  0  0  0
 15 52  1  0  0  0  0
 15 53  1  0  0  0  0
 16 18  1  0  0  0  0
 16 20  1  0  0  0  0
 16 54  1  0  0  0  0
 16 55  1  0  0  0  0
 17 21  1  0  0  0  0
 17 56  1  0  0  0  0
 17 57  1  0  0  0  0
 18 22  1  0  0  0  0
 18 58  1  0  0  0  0
 18 59  1  0  0  0  0
 19 24  1  0  0  0  0
 19 60  1  0  0  0  0
 19 61  1  0  0  0  0
 20 25  1  0  0  0  0
 20 62  1  0  0  0  0
 20 63  1  0  0  0  0
 21 27  1  0  0  0  0
 21 64  1  0  0  0  0
 21 65  1  0  0  0  0
 22 28  1  0  0  0  0
 22 66  1  0  0  0  0
 22 67  1  0  0  0  0
 23 29  1  0  0  0  0
 23 30  1  0  0  0  0
 23 68  1  0  0  0  0
 24 32  1  0  0  0  0
 24 69  1  0  0  0  0
 24 70  1  0  0  0  0
 25 33  1  0  0  0  0
 25 71  1  0  0  0  0
 25 72  1  0  0  0  0
 27 34  1  0  0  0  0
 27 73  1  0  0  0  0
 27 74  1  0  0  0  0
 28 35  1  0  0  0  0
 28 75  1  0  0  0  0
 28 76  1  0  0  0  0
 29 77  1  0  0  0  0
 29 78  1  0  0  0  0
 30 79  1  0  0  0  0
 30 80  1  0  0  0  0
 31 81  1  0  0  0  0
 31 82  1  0  0  0  0
 31 83  1  0  0  0  0
 34 84  1  0  0  0  0
 34 85  1  0  0  0  0
 34 86  1  0  0  0  0
 35 87  1  0  0  0  0
 35 88  1  0  0  0  0
 35 89  1  0  0  0  0
M  END
> <PUBCHEM_COMPOUND_CID>
10436013

> <PUBCHEM_COMPOUND_CANONICALIZED>
1

> <PUBCHEM_CACTVS_COMPLEXITY>
489

> <PUBCHEM_CACTVS_HBOND_ACCEPTOR>
6

> <PUBCHEM_CACTVS_HBOND_DONOR>
0

> <PUBCHEM_CACTVS_ROTATABLE_BOND>
28

> <PUBCHEM_CACTVS_SUBSKEYS>
AAADcfB4OAAAAAAAAAAAAAAAAAAAAAAAAAAAAAAAAAAAAAAAAAAAGgAAAAAACBSggAICCAAABAAIAACQCAAAAAAAAAAAAAEAAAABABIAAAACAAAFAAACAAGIyKCAAAAAAAAAAAAAAAAAAAAAAAAAAAAAAA==

> <PUBCHEM_IUPAC_OPENEYE_NAME>
[2-octanoyloxy-1-(octanoyloxymethyl)ethyl] decanoate

> <PUBCHEM_IUPAC_CAS_NAME>
decanoic acid 1,3-bis(1-oxooctoxy)propan-2-yl ester

> <PUBCHEM_IUPAC_NAME_MARKUP>
1,3-di(octanoyloxy)propan-2-yl decanoate

> <PUBCHEM_IUPAC_NAME>
1,3-di(octanoyloxy)propan-2-yl decanoate

> <PUBCHEM_IUPAC_SYSTEMATIC_NAME>
1,3-di(octanoyloxy)propan-2-yl decanoate

> <PUBCHEM_IUPAC_TRADITIONAL_NAME>
capric acid [2-caprylyloxy-1-(caprylyloxymethyl)ethyl] ester

> <PUBCHEM_IUPAC_INCHI>
InChI=1S/C29H54O6/c1-4-7-10-13-14-17-20-23-29(32)35-26(24-33-27(30)21-18-15-11-8-5-2)25-34-28(31)22-19-16-12-9-6-3/h26H,4-25H2,1-3H3

> <PUBCHEM_IUPAC_INCHIKEY>
GVUCZFUFLQMFID-UHFFFAOYSA-N

> <PUBCHEM_XLOGP3_AA>
10

> <PUBCHEM_EXACT_MASS>
498.39203944

> <PUBCHEM_MOLECULAR_FORMULA>
C29H54O6

> <PUBCHEM_MOLECULAR_WEIGHT>
498.7

> <PUBCHEM_SMILES>
CCCCCCCCCC(=O)OC(COC(=O)CCCCCCC)COC(=O)CCCCCCC

> <PUBCHEM_CONNECTIVITY_SMILES>
CCCCCCCCCC(=O)OC(COC(=O)CCCCCCC)COC(=O)CCCCCCC

> <PUBCHEM_CACTVS_TPSA>
78.9

> <PUBCHEM_MONOISOTOPIC_WEIGHT>
498.39203944

> <PUBCHEM_TOTAL_CHARGE>
0

> <PUBCHEM_HEAVY_ATOM_COUNT>
35

> <PUBCHEM_ATOM_DEF_STEREO_COUNT>
0

> <PUBCHEM_ATOM_UDEF_STEREO_COUNT>
0

> <PUBCHEM_BOND_DEF_STEREO_COUNT>
0

> <PUBCHEM_BOND_UDEF_STEREO_COUNT>
0

> <PUBCHEM_ISOTOPIC_ATOM_COUNT>
0

> <PUBCHEM_COMPONENT_COUNT>
1

> <PUBCHEM_CACTVS_TAUTO_COUNT>
-1

> <PUBCHEM_COORDINATE_TYPE>
1
5
255

$$$$
