10552637
  -OEChem-05122608322D

 63 65  0     1  0  0  0  0  0999 V2000
    8.4497   -0.5950    0.0000 O   0  0  0  0  0  0  0  0  0  0  0  0
    4.8811    0.3995    0.0000 O   0  0  0  0  0  0  0  0  0  0  0  0
    5.8517   -1.0950    0.0000 O   0  0  0  0  0  0  0  0  0  0  0  0
    2.6598   -0.9277    0.0000 O   0  0  0  0  0  0  0  0  0  0  0  0
    3.8642   -1.9799    0.0000 O   0  0  0  0  0  0  0  0  0  0  0  0
    6.7177   -2.5950    0.0000 O   0  0  0  0  0  0  0  0  0  0  0  0
    8.4497   -3.5950    0.0000 O   0  0  0  0  0  0  0  0  0  0  0  0
   10.1818   -0.5950    0.0000 O   0  0  0  0  0  0  0  0  0  0  0  0
   10.1818   -2.5950    0.0000 O   0  0  0  0  0  0  0  0  0  0  0  0
    2.5369    1.2414    0.0000 O   0  0  0  0  0  0  0  0  0  0  0  0
    8.4497    2.4050    0.0000 O   0  0  0  0  0  0  0  0  0  0  0  0
   11.9138    2.4050    0.0000 O   0  0  0  0  0  0  0  0  0  0  0  0
   10.1818    3.4050    0.0000 O   0  0  0  0  0  0  0  0  0  0  0  0
    3.4030   -0.2586    0.0000 C   0  0  1  0  0  0  0  0  0  0  0  0
    7.5837   -1.0950    0.0000 C   0  0  1  0  0  0  0  0  0  0  0  0
    4.0721   -1.0017    0.0000 C   0  0  2  0  0  0  0  0  0  0  0  0
    7.5837   -2.0950    0.0000 C   0  0  2  0  0  0  0  0  0  0  0  0
    4.9856   -0.5950    0.0000 C   0  0  1  0  0  0  0  0  0  0  0  0
    8.4497   -2.5950    0.0000 C   0  0  1  0  0  0  0  0  0  0  0  0
    9.3158   -2.0950    0.0000 C   0  0  2  0  0  0  0  0  0  0  0  0
    3.9030    0.6074    0.0000 C   0  0  0  0  0  0  0  0  0  0  0  0
    6.7177   -0.5950    0.0000 C   0  0  0  0  0  0  0  0  0  0  0  0
    9.3158   -1.0950    0.0000 C   0  0  1  0  0  0  0  0  0  0  0  0
    2.5369    0.2414    0.0000 C   0  0  0  0  0  0  0  0  0  0  0  0
   10.1818    0.4050    0.0000 C   0  0  0  0  0  0  0  0  0  0  0  0
   11.0478    0.9050    0.0000 C   0  0  0  0  0  0  0  0  0  0  0  0
    9.3158    0.9050    0.0000 C   0  0  0  0  0  0  0  0  0  0  0  0
    9.3158    1.9050    0.0000 C   0  0  0  0  0  0  0  0  0  0  0  0
   11.0478    1.9050    0.0000 C   0  0  0  0  0  0  0  0  0  0  0  0
   10.1818    2.4050    0.0000 C   0  0  0  0  0  0  0  0  0  0  0  0
    8.4497    3.4050    0.0000 C   0  0  0  0  0  0  0  0  0  0  0  0
   12.7799    1.9050    0.0000 C   0  0  0  0  0  0  0  0  0  0  0  0
   11.0478    3.9050    0.0000 C   0  0  0  0  0  0  0  0  0  0  0  0
    7.5837   -0.4750    0.0000 H   0  0  0  0  0  0  0  0  0  0  0  0
    3.4732   -1.1622    0.0000 H   0  0  0  0  0  0  0  0  0  0  0  0
    7.0468   -1.7850    0.0000 H   0  0  0  0  0  0  0  0  0  0  0  0
    4.9532   -1.2142    0.0000 H   0  0  0  0  0  0  0  0  0  0  0  0
    7.9128   -2.9050    0.0000 H   0  0  0  0  0  0  0  0  0  0  0  0
    9.8527   -1.7850    0.0000 H   0  0  0  0  0  0  0  0  0  0  0  0
    4.0946    1.1971    0.0000 H   0  0  0  0  0  0  0  0  0  0  0  0
    3.3366    0.8596    0.0000 H   0  0  0  0  0  0  0  0  0  0  0  0
    7.1162   -0.1201    0.0000 H   0  0  0  0  0  0  0  0  0  0  0  0
    6.3192   -0.1201    0.0000 H   0  0  0  0  0  0  0  0  0  0  0  0
    9.3158   -0.4750    0.0000 H   0  0  0  0  0  0  0  0  0  0  0  0
    1.9264    0.3491    0.0000 H   0  0  0  0  0  0  0  0  0  0  0  0
    2.3249   -0.3412    0.0000 H   0  0  0  0  0  0  0  0  0  0  0  0
    2.0702   -0.7361    0.0000 H   0  0  0  0  0  0  0  0  0  0  0  0
    4.3249   -2.3948    0.0000 H   0  0  0  0  0  0  0  0  0  0  0  0
    6.7177   -3.2150    0.0000 H   0  0  0  0  0  0  0  0  0  0  0  0
    8.9867   -3.9050    0.0000 H   0  0  0  0  0  0  0  0  0  0  0  0
   10.7187   -2.2850    0.0000 H   0  0  0  0  0  0  0  0  0  0  0  0
    2.0000    1.5514    0.0000 H   0  0  0  0  0  0  0  0  0  0  0  0
   11.5848    0.5950    0.0000 H   0  0  0  0  0  0  0  0  0  0  0  0
    8.7788    0.5950    0.0000 H   0  0  0  0  0  0  0  0  0  0  0  0
    9.0697    3.4050    0.0000 H   0  0  0  0  0  0  0  0  0  0  0  0
    8.4497    4.0250    0.0000 H   0  0  0  0  0  0  0  0  0  0  0  0
    7.8297    3.4050    0.0000 H   0  0  0  0  0  0  0  0  0  0  0  0
   12.4699    1.3681    0.0000 H   0  0  0  0  0  0  0  0  0  0  0  0
   13.3168    1.5950    0.0000 H   0  0  0  0  0  0  0  0  0  0  0  0
   13.0899    2.4419    0.0000 H   0  0  0  0  0  0  0  0  0  0  0  0
   11.3578    3.3681    0.0000 H   0  0  0  0  0  0  0  0  0  0  0  0
   11.5848    4.2150    0.0000 H   0  0  0  0  0  0  0  0  0  0  0  0
   10.7378    4.4419    0.0000 H   0  0  0  0  0  0  0  0  0  0  0  0
  1 15  1  0  0  0  0
  1 23  1  0  0  0  0
  2 18  1  0  0  0  0
  2 21  1  0  0  0  0
 18  3  1  1  0  0  0
  3 22  1  0  0  0  0
 14  4  1  6  0  0  0
  4 47  1  0  0  0  0
 16  5  1  6  0  0  0
  5 48  1  0  0  0  0
 17  6  1  6  0  0  0
  6 49  1  0  0  0  0
 19  7  1  1  0  0  0
  7 50  1  0  0  0  0
 23  8  1  1  0  0  0
  8 25  1  0  0  0  0
 20  9  1  6  0  0  0
  9 51  1  0  0  0  0
 10 24  1  0  0  0  0
 10 52  1  0  0  0  0
 11 28  1  0  0  0  0
 11 31  1  0  0  0  0
 12 29  1  0  0  0  0
 12 32  1  0  0  0  0
 13 30  1  0  0  0  0
 13 33  1  0  0  0  0
 14 16  1  0  0  0  0
 14 21  1  0  0  0  0
 14 24  1  0  0  0  0
 15 17  1  0  0  0  0
 15 22  1  1  0  0  0
 15 34  1  0  0  0  0
 16 18  1  0  0  0  0
 16 35  1  0  0  0  0
 17 19  1  0  0  0  0
 17 36  1  0  0  0  0
 18 37  1  0  0  0  0
 19 20  1  0  0  0  0
 19 38  1  0  0  0  0
 20 23  1  0  0  0  0
 20 39  1  0  0  0  0
 21 40  1  0  0  0  0
 21 41  1  0  0  0  0
 22 42  1  0  0  0  0
 22 43  1  0  0  0  0
 23 44  1  0  0  0  0
 24 45  1  0  0  0  0
 24 46  1  0  0  0  0
 25 26  2  0  0  0  0
 25 27  1  0  0  0  0
 26 29  1  0  0  0  0
 26 53  1  0  0  0  0
 27 28  2  0  0  0  0
 27 54  1  0  0  0  0
 28 30  1  0  0  0  0
 29 30  2  0  0  0  0
 31 55  1  0  0  0  0
 31 56  1  0  0  0  0
 31 57  1  0  0  0  0
 32 58  1  0  0  0  0
 32 59  1  0  0  0  0
 32 60  1  0  0  0  0
 33 61  1  0  0  0  0
 33 62  1  0  0  0  0
 33 63  1  0  0  0  0
M  END
> <PUBCHEM_COMPOUND_CID>
10552637

> <PUBCHEM_COMPOUND_CANONICALIZED>
1

> <PUBCHEM_CACTVS_COMPLEXITY>
597

> <PUBCHEM_CACTVS_HBOND_ACCEPTOR>
13

> <PUBCHEM_CACTVS_HBOND_DONOR>
6

> <PUBCHEM_CACTVS_ROTATABLE_BOND>
9

> <PUBCHEM_CACTVS_SUBSKEYS>
AAADceB4PAAAAAAAAAAAAAAAAAAAASAAAAA0QAAAAAAAAAABAAAAGgAACAAADFSwkAMyDoAABgCAACBCAAACCAAgIAAAiAAGiIgdNyKEMRqieCKlwBUPqAfAYAwIAQAACAAAQAACAAAQAACAAAAAAAAAAA==

> <PUBCHEM_IUPAC_OPENEYE_NAME>
(2R,3S,4S,5R,6S)-2-[[(2R,3R,4R)-3,4-dihydroxy-4-(hydroxymethyl)tetrahydrofuran-2-yl]oxymethyl]-6-(3,4,5-trimethoxyphenoxy)tetrahydropyran-3,4,5-triol

> <PUBCHEM_IUPAC_CAS_NAME>
(2R,3S,4S,5R,6S)-2-[[(2R,3R,4R)-3,4-dihydroxy-4-(hydroxymethyl)-2-oxolanyl]oxymethyl]-6-(3,4,5-trimethoxyphenoxy)oxane-3,4,5-triol

> <PUBCHEM_IUPAC_NAME_MARKUP>
(2<I>R</I>,3<I>S</I>,4<I>S</I>,5<I>R</I>,6<I>S</I>)-2-[[(2<I>R</I>,3<I>R</I>,4<I>R</I>)-3,4-dihydroxy-4-(hydroxymethyl)oxolan-2-yl]oxymethyl]-6-(3,4,5-trimethoxyphenoxy)oxane-3,4,5-triol

> <PUBCHEM_IUPAC_NAME>
(2R,3S,4S,5R,6S)-2-[[(2R,3R,4R)-3,4-dihydroxy-4-(hydroxymethyl)oxolan-2-yl]oxymethyl]-6-(3,4,5-trimethoxyphenoxy)oxane-3,4,5-triol

> <PUBCHEM_IUPAC_SYSTEMATIC_NAME>
(2R,3S,4S,5R,6S)-2-[[(2R,3R,4R)-4-(hydroxymethyl)-3,4-bis(oxidanyl)oxolan-2-yl]oxymethyl]-6-(3,4,5-trimethoxyphenoxy)oxane-3,4,5-triol

> <PUBCHEM_IUPAC_TRADITIONAL_NAME>
(2R,3S,4S,5R,6S)-2-[[(2R,3R,4R)-3,4-dihydroxy-4-methylol-tetrahydrofuran-2-yl]oxymethyl]-6-(3,4,5-trimethoxyphenoxy)tetrahydropyran-3,4,5-triol

> <PUBCHEM_IUPAC_INCHI>
InChI=1S/C20H30O13/c1-27-10-4-9(5-11(28-2)16(10)29-3)32-18-15(24)14(23)13(22)12(33-18)6-30-19-17(25)20(26,7-21)8-31-19/h4-5,12-15,17-19,21-26H,6-8H2,1-3H3/t12-,13-,14+,15-,17+,18-,19-,20-/m1/s1

> <PUBCHEM_IUPAC_INCHIKEY>
CKGKQISENBKOCA-FHXQZXMCSA-N

> <PUBCHEM_XLOGP3_AA>
-2.1

> <PUBCHEM_EXACT_MASS>
478.16864101

> <PUBCHEM_MOLECULAR_FORMULA>
C20H30O13

> <PUBCHEM_MOLECULAR_WEIGHT>
478.4

> <PUBCHEM_SMILES>
COC1=CC(=CC(=C1OC)OC)O[C@H]2[C@@H]([C@H]([C@@H]([C@H](O2)CO[C@H]3[C@@H]([C@](CO3)(CO)O)O)O)O)O

> <PUBCHEM_CONNECTIVITY_SMILES>
COC1=CC(=CC(=C1OC)OC)OC2C(C(C(C(O2)COC3C(C(CO3)(CO)O)O)O)O)O

> <PUBCHEM_CACTVS_TPSA>
186

> <PUBCHEM_MONOISOTOPIC_WEIGHT>
478.16864101

> <PUBCHEM_TOTAL_CHARGE>
0

> <PUBCHEM_HEAVY_ATOM_COUNT>
33

> <PUBCHEM_ATOM_DEF_STEREO_COUNT>
8

> <PUBCHEM_ATOM_UDEF_STEREO_COUNT>
0

> <PUBCHEM_BOND_DEF_STEREO_COUNT>
0

> <PUBCHEM_BOND_UDEF_STEREO_COUNT>
0

> <PUBCHEM_ISOTOPIC_ATOM_COUNT>
0

> <PUBCHEM_COMPONENT_COUNT>
1

> <PUBCHEM_CACTVS_TAUTO_COUNT>
-1

> <PUBCHEM_COORDINATE_TYPE>
1
5
255

> <PUBCHEM_BONDANNOTATIONS>
15  22  5
25  26  8
25  27  8
26  29  8
27  28  8
28  30  8
29  30  8
18  3  5
14  4  6
16  5  6
17  6  6
19  7  5
23  8  5
20  9  6

$$$$
