106027
  -OEChem-05122608192D

 50 49  0     0  0  0  0  0  0999 V2000
    8.4282    0.5490    0.0000 F   0  0  0  0  0  0  0  0  0  0  0  0
    9.4282   -1.1830    0.0000 F   0  0  0  0  0  0  0  0  0  0  0  0
    9.2942    1.0490    0.0000 F   0  0  0  0  0  0  0  0  0  0  0  0
   10.2942   -0.6830    0.0000 F   0  0  0  0  0  0  0  0  0  0  0  0
    7.5622    0.0490    0.0000 F   0  0  0  0  0  0  0  0  0  0  0  0
    8.5622   -1.6830    0.0000 F   0  0  0  0  0  0  0  0  0  0  0  0
   11.1603   -0.1830    0.0000 F   0  0  0  0  0  0  0  0  0  0  0  0
   10.1603    1.5490    0.0000 F   0  0  0  0  0  0  0  0  0  0  0  0
    6.6962   -0.4510    0.0000 F   0  0  0  0  0  0  0  0  0  0  0  0
    7.6962   -2.1830    0.0000 F   0  0  0  0  0  0  0  0  0  0  0  0
   12.0263    0.3170    0.0000 F   0  0  0  0  0  0  0  0  0  0  0  0
   11.0263    2.0490    0.0000 F   0  0  0  0  0  0  0  0  0  0  0  0
    5.8301   -0.9510    0.0000 F   0  0  0  0  0  0  0  0  0  0  0  0
    6.8301   -2.6830    0.0000 F   0  0  0  0  0  0  0  0  0  0  0  0
   12.8923    0.8170    0.0000 F   0  0  0  0  0  0  0  0  0  0  0  0
   11.8923    2.5490    0.0000 F   0  0  0  0  0  0  0  0  0  0  0  0
    4.9641   -1.4510    0.0000 F   0  0  0  0  0  0  0  0  0  0  0  0
    5.9641   -3.1830    0.0000 F   0  0  0  0  0  0  0  0  0  0  0  0
   13.7583    1.3170    0.0000 F   0  0  0  0  0  0  0  0  0  0  0  0
   12.7583    3.0490    0.0000 F   0  0  0  0  0  0  0  0  0  0  0  0
    4.0981   -1.9510    0.0000 F   0  0  0  0  0  0  0  0  0  0  0  0
    5.0981   -3.6830    0.0000 F   0  0  0  0  0  0  0  0  0  0  0  0
   14.6244    1.8170    0.0000 F   0  0  0  0  0  0  0  0  0  0  0  0
   13.6244    3.5490    0.0000 F   0  0  0  0  0  0  0  0  0  0  0  0
    3.2321   -2.4510    0.0000 F   0  0  0  0  0  0  0  0  0  0  0  0
    4.2321   -4.1830    0.0000 F   0  0  0  0  0  0  0  0  0  0  0  0
   15.4904    2.3170    0.0000 F   0  0  0  0  0  0  0  0  0  0  0  0
   14.4904    4.0490    0.0000 F   0  0  0  0  0  0  0  0  0  0  0  0
    2.0000   -4.3170    0.0000 F   0  0  0  0  0  0  0  0  0  0  0  0
    2.3660   -2.9510    0.0000 F   0  0  0  0  0  0  0  0  0  0  0  0
    3.3660   -4.6830    0.0000 F   0  0  0  0  0  0  0  0  0  0  0  0
   16.7224    3.1830    0.0000 O   0  0  0  0  0  0  0  0  0  0  0  0
   15.8564    4.6830    0.0000 O   0  0  0  0  0  0  0  0  0  0  0  0
    8.9282   -0.3170    0.0000 C   0  0  0  0  0  0  0  0  0  0  0  0
    9.7942    0.1830    0.0000 C   0  0  0  0  0  0  0  0  0  0  0  0
    8.0622   -0.8170    0.0000 C   0  0  0  0  0  0  0  0  0  0  0  0
   10.6603    0.6830    0.0000 C   0  0  0  0  0  0  0  0  0  0  0  0
    7.1962   -1.3170    0.0000 C   0  0  0  0  0  0  0  0  0  0  0  0
   11.5263    1.1830    0.0000 C   0  0  0  0  0  0  0  0  0  0  0  0
    6.3301   -1.8170    0.0000 C   0  0  0  0  0  0  0  0  0  0  0  0
   12.3923    1.6830    0.0000 C   0  0  0  0  0  0  0  0  0  0  0  0
    5.4641   -2.3170    0.0000 C   0  0  0  0  0  0  0  0  0  0  0  0
   13.2583    2.1830    0.0000 C   0  0  0  0  0  0  0  0  0  0  0  0
    4.5981   -2.8170    0.0000 C   0  0  0  0  0  0  0  0  0  0  0  0
   14.1244    2.6830    0.0000 C   0  0  0  0  0  0  0  0  0  0  0  0
    3.7321   -3.3170    0.0000 C   0  0  0  0  0  0  0  0  0  0  0  0
   14.9904    3.1830    0.0000 C   0  0  0  0  0  0  0  0  0  0  0  0
    2.8660   -3.8170    0.0000 C   0  0  0  0  0  0  0  0  0  0  0  0
   15.8564    3.6830    0.0000 C   0  0  0  0  0  0  0  0  0  0  0  0
   17.2594    3.4930    0.0000 H   0  0  0  0  0  0  0  0  0  0  0  0
  1 34  1  0  0  0  0
  2 34  1  0  0  0  0
  3 35  1  0  0  0  0
  4 35  1  0  0  0  0
  5 36  1  0  0  0  0
  6 36  1  0  0  0  0
  7 37  1  0  0  0  0
  8 37  1  0  0  0  0
  9 38  1  0  0  0  0
 10 38  1  0  0  0  0
 11 39  1  0  0  0  0
 12 39  1  0  0  0  0
 13 40  1  0  0  0  0
 14 40  1  0  0  0  0
 15 41  1  0  0  0  0
 16 41  1  0  0  0  0
 17 42  1  0  0  0  0
 18 42  1  0  0  0  0
 19 43  1  0  0  0  0
 20 43  1  0  0  0  0
 21 44  1  0  0  0  0
 22 44  1  0  0  0  0
 23 45  1  0  0  0  0
 24 45  1  0  0  0  0
 25 46  1  0  0  0  0
 26 46  1  0  0  0  0
 27 47  1  0  0  0  0
 28 47  1  0  0  0  0
 29 48  1  0  0  0  0
 30 48  1  0  0  0  0
 31 48  1  0  0  0  0
 32 49  1  0  0  0  0
 32 50  1  0  0  0  0
 33 49  2  0  0  0  0
 34 35  1  0  0  0  0
 34 36  1  0  0  0  0
 35 37  1  0  0  0  0
 36 38  1  0  0  0  0
 37 39  1  0  0  0  0
 38 40  1  0  0  0  0
 39 41  1  0  0  0  0
 40 42  1  0  0  0  0
 41 43  1  0  0  0  0
 42 44  1  0  0  0  0
 43 45  1  0  0  0  0
 44 46  1  0  0  0  0
 45 47  1  0  0  0  0
 46 48  1  0  0  0  0
 47 49  1  0  0  0  0
M  END
> <PUBCHEM_COMPOUND_CID>
106027

> <PUBCHEM_COMPOUND_CANONICALIZED>
1

> <PUBCHEM_CACTVS_COMPLEXITY>
1250

> <PUBCHEM_CACTVS_HBOND_ACCEPTOR>
33

> <PUBCHEM_CACTVS_HBOND_DONOR>
1

> <PUBCHEM_CACTVS_ROTATABLE_BOND>
14

> <PUBCHEM_CACTVS_SUBSKEYS>
AAADcQB4McAAAAAAAAAAAAAAAAAAAAAAAAAAAAAAAAAAAAAAAAAACwAACAAACAAAgBAACAAAAgAIAACQCAAAAAAAAAAAAAEAAAAAABIAAAAAQAAEAAAAAAGIyKCAAAAAAAAAAAAAAAAAAAAAAAAAAAAAAA==

> <PUBCHEM_IUPAC_OPENEYE_NAME>
2,2,3,3,4,4,5,5,6,6,7,7,8,8,9,9,10,10,11,11,12,12,13,13,14,14,15,15,16,16,16-hentriacontafluorohexadecanoic acid

> <PUBCHEM_IUPAC_CAS_NAME>
2,2,3,3,4,4,5,5,6,6,7,7,8,8,9,9,10,10,11,11,12,12,13,13,14,14,15,15,16,16,16-hentriacontafluorohexadecanoic acid

> <PUBCHEM_IUPAC_NAME_MARKUP>
2,2,3,3,4,4,5,5,6,6,7,7,8,8,9,9,10,10,11,11,12,12,13,13,14,14,15,15,16,16,16-hentriacontafluorohexadecanoic acid

> <PUBCHEM_IUPAC_NAME>
2,2,3,3,4,4,5,5,6,6,7,7,8,8,9,9,10,10,11,11,12,12,13,13,14,14,15,15,16,16,16-hentriacontafluorohexadecanoic acid

> <PUBCHEM_IUPAC_SYSTEMATIC_NAME>
2,2,3,3,4,4,5,5,6,6,7,7,8,8,9,9,10,10,11,11,12,12,13,13,14,14,15,15,16,16,16-hentriacontakis(fluoranyl)hexadecanoic acid

> <PUBCHEM_IUPAC_TRADITIONAL_NAME>
2,2,3,3,4,4,5,5,6,6,7,7,8,8,9,9,10,10,11,11,12,12,13,13,14,14,15,15,16,16,16-hentriacontafluoropalmitic acid

> <PUBCHEM_IUPAC_INCHI>
InChI=1S/C16HF31O2/c17-2(18,1(48)49)3(19,20)4(21,22)5(23,24)6(25,26)7(27,28)8(29,30)9(31,32)10(33,34)11(35,36)12(37,38)13(39,40)14(41,42)15(43,44)16(45,46)47/h(H,48,49)

> <PUBCHEM_IUPAC_INCHIKEY>
OJMBMWRMTMHMSZ-UHFFFAOYSA-N

> <PUBCHEM_XLOGP3_AA>
10.3

> <PUBCHEM_EXACT_MASS>
813.9481523

> <PUBCHEM_MOLECULAR_FORMULA>
C16HF31O2

> <PUBCHEM_MOLECULAR_WEIGHT>
814.13

> <PUBCHEM_SMILES>
C(=O)(C(C(C(C(C(C(C(C(C(C(C(C(C(C(C(F)(F)F)(F)F)(F)F)(F)F)(F)F)(F)F)(F)F)(F)F)(F)F)(F)F)(F)F)(F)F)(F)F)(F)F)(F)F)O

> <PUBCHEM_CONNECTIVITY_SMILES>
C(=O)(C(C(C(C(C(C(C(C(C(C(C(C(C(C(C(F)(F)F)(F)F)(F)F)(F)F)(F)F)(F)F)(F)F)(F)F)(F)F)(F)F)(F)F)(F)F)(F)F)(F)F)(F)F)O

> <PUBCHEM_CACTVS_TPSA>
37.3

> <PUBCHEM_MONOISOTOPIC_WEIGHT>
813.9481523

> <PUBCHEM_TOTAL_CHARGE>
0

> <PUBCHEM_HEAVY_ATOM_COUNT>
49

> <PUBCHEM_ATOM_DEF_STEREO_COUNT>
0

> <PUBCHEM_ATOM_UDEF_STEREO_COUNT>
0

> <PUBCHEM_BOND_DEF_STEREO_COUNT>
0

> <PUBCHEM_BOND_UDEF_STEREO_COUNT>
0

> <PUBCHEM_ISOTOPIC_ATOM_COUNT>
0

> <PUBCHEM_COMPONENT_COUNT>
1

> <PUBCHEM_CACTVS_TAUTO_COUNT>
-1

> <PUBCHEM_COORDINATE_TYPE>
1
5
255

$$$$
