10683305
  -OEChem-05122609432D

 35 35  0     0  0  0  0  0  0999 V2000
    6.8671    1.5000    0.0000 O   0  0  0  0  0  0  0  0  0  0  0  0
    6.0010   -1.0000    0.0000 O   0  0  0  0  0  0  0  0  0  0  0  0
    8.5991    3.5000    0.0000 O   0  0  0  0  0  0  0  0  0  0  0  0
    4.2690   -1.0000    0.0000 O   0  0  0  0  0  0  0  0  0  0  0  0
    2.5369   -3.0000    0.0000 O   0  0  0  0  0  0  0  0  0  0  0  0
    3.4030   -1.5000    0.0000 O   0  0  0  0  0  0  0  0  0  0  0  0
    6.8671    0.5000    0.0000 C   0  0  0  0  0  0  0  0  0  0  0  0
    6.0010    0.0000    0.0000 C   0  0  0  0  0  0  0  0  0  0  0  0
    7.7331    2.0000    0.0000 C   0  0  0  0  0  0  0  0  0  0  0  0
    5.1350   -2.5000    0.0000 C   0  0  0  0  0  0  0  0  0  0  0  0
    7.7331    3.0000    0.0000 C   0  0  0  0  0  0  0  0  0  0  0  0
    4.2690   -3.0000    0.0000 C   0  0  0  0  0  0  0  0  0  0  0  0
    5.1350   -1.5000    0.0000 C   0  0  0  0  0  0  0  0  0  0  0  0
    6.0010   -3.0000    0.0000 C   0  0  0  0  0  0  0  0  0  0  0  0
    4.2690   -4.0000    0.0000 C   0  0  0  0  0  0  0  0  0  0  0  0
    6.0010   -4.0000    0.0000 C   0  0  0  0  0  0  0  0  0  0  0  0
    5.1350   -4.5000    0.0000 C   0  0  0  0  0  0  0  0  0  0  0  0
    3.4030   -2.5000    0.0000 C   0  0  0  0  0  0  0  0  0  0  0  0
    8.5991    4.5000    0.0000 C   0  0  0  0  0  0  0  0  0  0  0  0
    7.0791   -0.0826    0.0000 H   0  0  0  0  0  0  0  0  0  0  0  0
    7.4776    0.6077    0.0000 H   0  0  0  0  0  0  0  0  0  0  0  0
    5.7890    0.5826    0.0000 H   0  0  0  0  0  0  0  0  0  0  0  0
    5.3905   -0.1077    0.0000 H   0  0  0  0  0  0  0  0  0  0  0  0
    7.9451    1.4174    0.0000 H   0  0  0  0  0  0  0  0  0  0  0  0
    8.3437    2.1077    0.0000 H   0  0  0  0  0  0  0  0  0  0  0  0
    7.5210    3.5826    0.0000 H   0  0  0  0  0  0  0  0  0  0  0  0
    7.1225    2.8923    0.0000 H   0  0  0  0  0  0  0  0  0  0  0  0
    6.5380   -2.6900    0.0000 H   0  0  0  0  0  0  0  0  0  0  0  0
    3.7320   -4.3100    0.0000 H   0  0  0  0  0  0  0  0  0  0  0  0
    6.5380   -4.3100    0.0000 H   0  0  0  0  0  0  0  0  0  0  0  0
    5.1350   -5.1200    0.0000 H   0  0  0  0  0  0  0  0  0  0  0  0
    9.2191    4.5000    0.0000 H   0  0  0  0  0  0  0  0  0  0  0  0
    8.5991    5.1200    0.0000 H   0  0  0  0  0  0  0  0  0  0  0  0
    7.9791    4.5000    0.0000 H   0  0  0  0  0  0  0  0  0  0  0  0
    2.0000   -2.6900    0.0000 H   0  0  0  0  0  0  0  0  0  0  0  0
  1  7  1  0  0  0  0
  1  9  1  0  0  0  0
  2  8  1  0  0  0  0
  2 13  1  0  0  0  0
  3 11  1  0  0  0  0
  3 19  1  0  0  0  0
  4 13  2  0  0  0  0
  5 18  1  0  0  0  0
  5 35  1  0  0  0  0
  6 18  2  0  0  0  0
  7  8  1  0  0  0  0
  7 20  1  0  0  0  0
  7 21  1  0  0  0  0
  8 22  1  0  0  0  0
  8 23  1  0  0  0  0
  9 11  1  0  0  0  0
  9 24  1  0  0  0  0
  9 25  1  0  0  0  0
 10 12  1  0  0  0  0
 10 13  1  0  0  0  0
 10 14  2  0  0  0  0
 11 26  1  0  0  0  0
 11 27  1  0  0  0  0
 12 15  2  0  0  0  0
 12 18  1  0  0  0  0
 14 16  1  0  0  0  0
 14 28  1  0  0  0  0
 15 17  1  0  0  0  0
 15 29  1  0  0  0  0
 16 17  2  0  0  0  0
 16 30  1  0  0  0  0
 17 31  1  0  0  0  0
 19 32  1  0  0  0  0
 19 33  1  0  0  0  0
 19 34  1  0  0  0  0
M  END
> <PUBCHEM_COMPOUND_CID>
10683305

> <PUBCHEM_COMPOUND_CANONICALIZED>
1

> <PUBCHEM_CACTVS_COMPLEXITY>
291

> <PUBCHEM_CACTVS_HBOND_ACCEPTOR>
6

> <PUBCHEM_CACTVS_HBOND_DONOR>
1

> <PUBCHEM_CACTVS_ROTATABLE_BOND>
9

> <PUBCHEM_CACTVS_SUBSKEYS>
AAADceBwOAAAAAAAAAAAAAAAAAAAAAAAAAAwAAAAAAAAAAABAAAAGgAACAAADACgmAIyCIAABgCIAiDSCAACAAAkAAAIiAEACMgJJjKANRiCcQAkwAEKuYfLyKCOgAAAAAAQAAAAAAAAACAAAAAAAAAAAA==

> <PUBCHEM_IUPAC_OPENEYE_NAME>
2-[2-(2-methoxyethoxy)ethoxycarbonyl]benzoic acid

> <PUBCHEM_IUPAC_CAS_NAME>
2-[2-(2-methoxyethoxy)ethoxy-oxomethyl]benzoic acid

> <PUBCHEM_IUPAC_NAME_MARKUP>
2-[2-(2-methoxyethoxy)ethoxycarbonyl]benzoic acid

> <PUBCHEM_IUPAC_NAME>
2-[2-(2-methoxyethoxy)ethoxycarbonyl]benzoic acid

> <PUBCHEM_IUPAC_SYSTEMATIC_NAME>
2-[2-(2-methoxyethoxy)ethoxycarbonyl]benzoic acid

> <PUBCHEM_IUPAC_TRADITIONAL_NAME>
2-[2-(2-methoxyethoxy)ethoxycarbonyl]benzoic acid

> <PUBCHEM_IUPAC_INCHI>
InChI=1S/C13H16O6/c1-17-6-7-18-8-9-19-13(16)11-5-3-2-4-10(11)12(14)15/h2-5H,6-9H2,1H3,(H,14,15)

> <PUBCHEM_IUPAC_INCHIKEY>
ARIYNWGPLSXJMC-UHFFFAOYSA-N

> <PUBCHEM_XLOGP3>
0.8

> <PUBCHEM_EXACT_MASS>
268.09468823

> <PUBCHEM_MOLECULAR_FORMULA>
C13H16O6

> <PUBCHEM_MOLECULAR_WEIGHT>
268.26

> <PUBCHEM_SMILES>
COCCOCCOC(=O)C1=CC=CC=C1C(=O)O

> <PUBCHEM_CONNECTIVITY_SMILES>
COCCOCCOC(=O)C1=CC=CC=C1C(=O)O

> <PUBCHEM_CACTVS_TPSA>
82.1

> <PUBCHEM_MONOISOTOPIC_WEIGHT>
268.09468823

> <PUBCHEM_TOTAL_CHARGE>
0

> <PUBCHEM_HEAVY_ATOM_COUNT>
19

> <PUBCHEM_ATOM_DEF_STEREO_COUNT>
0

> <PUBCHEM_ATOM_UDEF_STEREO_COUNT>
0

> <PUBCHEM_BOND_DEF_STEREO_COUNT>
0

> <PUBCHEM_BOND_UDEF_STEREO_COUNT>
0

> <PUBCHEM_ISOTOPIC_ATOM_COUNT>
0

> <PUBCHEM_COMPONENT_COUNT>
1

> <PUBCHEM_CACTVS_TAUTO_COUNT>
-1

> <PUBCHEM_COORDINATE_TYPE>
1
5
255

> <PUBCHEM_BONDANNOTATIONS>
10  12  8
10  14  8
12  15  8
14  16  8
15  17  8
16  17  8

$$$$
