107736
  -OEChem-05122609392D

 38 38  0     0  0  0  0  0  0999 V2000
    2.8660    0.4330    0.0000 O   0  0  0  0  0  0  0  0  0  0  0  0
    4.5981    1.4330    0.0000 C   0  0  0  0  0  0  0  0  0  0  0  0
    2.8660   -1.5670    0.0000 C   0  0  0  0  0  0  0  0  0  0  0  0
    4.5981    0.4330    0.0000 C   0  0  0  0  0  0  0  0  0  0  0  0
    3.7321   -1.0670    0.0000 C   0  0  0  0  0  0  0  0  0  0  0  0
    3.7321   -0.0670    0.0000 C   0  0  0  0  0  0  0  0  0  0  0  0
    4.5981    2.4330    0.0000 C   0  0  0  0  0  0  0  0  0  0  0  0
    5.5981    1.4330    0.0000 C   0  0  0  0  0  0  0  0  0  0  0  0
    3.5981    1.4330    0.0000 C   0  0  0  0  0  0  0  0  0  0  0  0
    2.0000   -2.0670    0.0000 C   0  0  0  0  0  0  0  0  0  0  0  0
    3.3660   -2.4330    0.0000 C   0  0  0  0  0  0  0  0  0  0  0  0
    2.3660   -0.7010    0.0000 C   0  0  0  0  0  0  0  0  0  0  0  0
    5.4641   -0.0670    0.0000 C   0  0  0  0  0  0  0  0  0  0  0  0
    4.5981   -1.5670    0.0000 C   0  0  0  0  0  0  0  0  0  0  0  0
    5.4641   -1.0670    0.0000 C   0  0  0  0  0  0  0  0  0  0  0  0
    6.3301   -1.5670    0.0000 C   0  0  0  0  0  0  0  0  0  0  0  0
    5.2181    2.4330    0.0000 H   0  0  0  0  0  0  0  0  0  0  0  0
    4.5981    3.0530    0.0000 H   0  0  0  0  0  0  0  0  0  0  0  0
    3.9781    2.4330    0.0000 H   0  0  0  0  0  0  0  0  0  0  0  0
    5.5981    0.8130    0.0000 H   0  0  0  0  0  0  0  0  0  0  0  0
    6.2181    1.4330    0.0000 H   0  0  0  0  0  0  0  0  0  0  0  0
    5.5981    2.0530    0.0000 H   0  0  0  0  0  0  0  0  0  0  0  0
    3.5981    2.0530    0.0000 H   0  0  0  0  0  0  0  0  0  0  0  0
    2.9781    1.4330    0.0000 H   0  0  0  0  0  0  0  0  0  0  0  0
    3.5981    0.8130    0.0000 H   0  0  0  0  0  0  0  0  0  0  0  0
    1.6900   -1.5301    0.0000 H   0  0  0  0  0  0  0  0  0  0  0  0
    1.4631   -2.3770    0.0000 H   0  0  0  0  0  0  0  0  0  0  0  0
    2.3100   -2.6039    0.0000 H   0  0  0  0  0  0  0  0  0  0  0  0
    2.8291   -2.7430    0.0000 H   0  0  0  0  0  0  0  0  0  0  0  0
    3.6760   -2.9700    0.0000 H   0  0  0  0  0  0  0  0  0  0  0  0
    3.9030   -2.1230    0.0000 H   0  0  0  0  0  0  0  0  0  0  0  0
    2.9030   -0.3910    0.0000 H   0  0  0  0  0  0  0  0  0  0  0  0
    2.0560   -0.1640    0.0000 H   0  0  0  0  0  0  0  0  0  0  0  0
    1.8291   -1.0110    0.0000 H   0  0  0  0  0  0  0  0  0  0  0  0
    6.0010    0.2430    0.0000 H   0  0  0  0  0  0  0  0  0  0  0  0
    4.5981   -2.1870    0.0000 H   0  0  0  0  0  0  0  0  0  0  0  0
    6.3301   -2.1870    0.0000 H   0  0  0  0  0  0  0  0  0  0  0  0
    6.8671   -1.2570    0.0000 H   0  0  0  0  0  0  0  0  0  0  0  0
  1  6  2  0  0  0  0
  2  4  1  0  0  0  0
  2  7  1  0  0  0  0
  2  8  1  0  0  0  0
  2  9  1  0  0  0  0
  3  5  1  0  0  0  0
  3 10  1  0  0  0  0
  3 11  1  0  0  0  0
  3 12  1  0  0  0  0
  4  6  1  0  0  0  0
  4 13  2  0  0  0  0
  5  6  1  0  0  0  0
  5 14  2  0  0  0  0
  7 17  1  0  0  0  0
  7 18  1  0  0  0  0
  7 19  1  0  0  0  0
  8 20  1  0  0  0  0
  8 21  1  0  0  0  0
  8 22  1  0  0  0  0
  9 23  1  0  0  0  0
  9 24  1  0  0  0  0
  9 25  1  0  0  0  0
 10 26  1  0  0  0  0
 10 27  1  0  0  0  0
 10 28  1  0  0  0  0
 11 29  1  0  0  0  0
 11 30  1  0  0  0  0
 11 31  1  0  0  0  0
 12 32  1  0  0  0  0
 12 33  1  0  0  0  0
 12 34  1  0  0  0  0
 13 15  1  0  0  0  0
 13 35  1  0  0  0  0
 14 15  1  0  0  0  0
 14 36  1  0  0  0  0
 15 16  2  0  0  0  0
 16 37  1  0  0  0  0
 16 38  1  0  0  0  0
M  END
> <PUBCHEM_COMPOUND_CID>
107736

> <PUBCHEM_COMPOUND_CANONICALIZED>
1

> <PUBCHEM_CACTVS_COMPLEXITY>
356

> <PUBCHEM_CACTVS_HBOND_ACCEPTOR>
1

> <PUBCHEM_CACTVS_HBOND_DONOR>
0

> <PUBCHEM_CACTVS_ROTATABLE_BOND>
2

> <PUBCHEM_CACTVS_SUBSKEYS>
AAADceBwIAAAAAAAAAAAAAAAAAAAAAAAAAAgAAAAAAAAAAAAAAAAGgAAAAAADgSAgAACAAAAAACIAqBSAAAAAAAgAAAACAEAAEgIABIAAQAAAAAAgAAIgYMAgEANAAAAAAAAAAAAAAAAAAAAAAAAAAAAAA==

> <PUBCHEM_IUPAC_OPENEYE_NAME>
2,6-ditert-butyl-4-methylene-cyclohexa-2,5-dien-1-one

> <PUBCHEM_IUPAC_CAS_NAME>
2,6-ditert-butyl-4-methylene-1-cyclohexa-2,5-dienone

> <PUBCHEM_IUPAC_NAME_MARKUP>
2,6-di<I>tert</I>-butyl-4-methylidenecyclohexa-2,5-dien-1-one

> <PUBCHEM_IUPAC_NAME>
2,6-ditert-butyl-4-methylidenecyclohexa-2,5-dien-1-one

> <PUBCHEM_IUPAC_SYSTEMATIC_NAME>
2,6-ditert-butyl-4-methylidene-cyclohexa-2,5-dien-1-one

> <PUBCHEM_IUPAC_TRADITIONAL_NAME>
2,6-ditert-butyl-4-methylene-cyclohexa-2,5-dien-1-one

> <PUBCHEM_IUPAC_INCHI>
InChI=1S/C15H22O/c1-10-8-11(14(2,3)4)13(16)12(9-10)15(5,6)7/h8-9H,1H2,2-7H3

> <PUBCHEM_IUPAC_INCHIKEY>
JJQCWPWUHZFKBN-UHFFFAOYSA-N

> <PUBCHEM_XLOGP3_AA>
4.6

> <PUBCHEM_EXACT_MASS>
218.167065321

> <PUBCHEM_MOLECULAR_FORMULA>
C15H22O

> <PUBCHEM_MOLECULAR_WEIGHT>
218.33

> <PUBCHEM_SMILES>
CC(C)(C)C1=CC(=C)C=C(C1=O)C(C)(C)C

> <PUBCHEM_CONNECTIVITY_SMILES>
CC(C)(C)C1=CC(=C)C=C(C1=O)C(C)(C)C

> <PUBCHEM_CACTVS_TPSA>
17.1

> <PUBCHEM_MONOISOTOPIC_WEIGHT>
218.167065321

> <PUBCHEM_TOTAL_CHARGE>
0

> <PUBCHEM_HEAVY_ATOM_COUNT>
16

> <PUBCHEM_ATOM_DEF_STEREO_COUNT>
0

> <PUBCHEM_ATOM_UDEF_STEREO_COUNT>
0

> <PUBCHEM_BOND_DEF_STEREO_COUNT>
0

> <PUBCHEM_BOND_UDEF_STEREO_COUNT>
0

> <PUBCHEM_ISOTOPIC_ATOM_COUNT>
0

> <PUBCHEM_COMPONENT_COUNT>
1

> <PUBCHEM_CACTVS_TAUTO_COUNT>
-1

> <PUBCHEM_COORDINATE_TYPE>
1
5
255

$$$$
