10910653
  -OEChem-05122609462D

 39 41  0     1  0  0  0  0  0999 V2000
    4.5037   -0.8508    0.0000 C   0  0  2  0  0  0  0  0  0  0  0  0
    5.3302   -1.4146    0.0000 C   0  0  0  0  0  0  0  0  0  0  0  0
    5.4047   -0.4169    0.0000 C   0  0  2  0  0  0  0  0  0  0  0  0
    3.6027   -0.4169    0.0000 C   0  0  2  0  0  0  0  0  0  0  0  0
    5.6272    0.5580    0.0000 C   0  0  0  0  0  0  0  0  0  0  0  0
    2.7480   -0.9246    0.0000 C   0  0  1  0  0  0  0  0  0  0  0  0
    3.3802    0.5580    0.0000 C   0  0  0  0  0  0  0  0  0  0  0  0
    6.3274   -1.4893    0.0000 C   0  0  0  0  0  0  0  0  0  0  0  0
    4.7668   -2.2408    0.0000 C   0  0  0  0  0  0  0  0  0  0  0  0
    5.0037    1.3398    0.0000 C   0  0  0  0  0  0  0  0  0  0  0  0
    2.0000   -0.2699    0.0000 C   0  0  0  0  0  0  0  0  0  0  0  0
    2.3899    0.6446    0.0000 C   0  0  0  0  0  0  0  0  0  0  0  0
    4.0037    1.3398    0.0000 C   0  0  0  0  0  0  0  0  0  0  0  0
    2.6567   -1.9204    0.0000 C   0  0  0  0  0  0  0  0  0  0  0  0
    3.5698    2.2408    0.0000 C   0  0  0  0  0  0  0  0  0  0  0  0
    4.0786   -1.5869    0.0000 H   0  0  0  0  0  0  0  0  0  0  0  0
    6.2452   -0.5435    0.0000 H   0  0  0  0  0  0  0  0  0  0  0  0
    3.6398   -1.2661    0.0000 H   0  0  0  0  0  0  0  0  0  0  0  0
    6.1858    0.2890    0.0000 H   0  0  0  0  0  0  0  0  0  0  0  0
    6.0138    1.0428    0.0000 H   0  0  0  0  0  0  0  0  0  0  0  0
    3.2723   -1.2556    0.0000 H   0  0  0  0  0  0  0  0  0  0  0  0
    6.2810   -2.1076    0.0000 H   0  0  0  0  0  0  0  0  0  0  0  0
    6.9456   -1.5356    0.0000 H   0  0  0  0  0  0  0  0  0  0  0  0
    6.3737   -0.8710    0.0000 H   0  0  0  0  0  0  0  0  0  0  0  0
    4.2546   -1.8916    0.0000 H   0  0  0  0  0  0  0  0  0  0  0  0
    4.4176   -2.7531    0.0000 H   0  0  0  0  0  0  0  0  0  0  0  0
    5.2791   -2.5901    0.0000 H   0  0  0  0  0  0  0  0  0  0  0  0
    5.5623    1.6089    0.0000 H   0  0  0  0  0  0  0  0  0  0  0  0
    4.8657    1.9443    0.0000 H   0  0  0  0  0  0  0  0  0  0  0  0
    1.4584    0.0319    0.0000 H   0  0  0  0  0  0  0  0  0  0  0  0
    1.6430   -0.7768    0.0000 H   0  0  0  0  0  0  0  0  0  0  0  0
    2.5085    1.2531    0.0000 H   0  0  0  0  0  0  0  0  0  0  0  0
    1.7972    0.8264    0.0000 H   0  0  0  0  0  0  0  0  0  0  0  0
    2.0393   -1.8637    0.0000 H   0  0  0  0  0  0  0  0  0  0  0  0
    2.6000   -2.5378    0.0000 H   0  0  0  0  0  0  0  0  0  0  0  0
    3.2741   -1.9770    0.0000 H   0  0  0  0  0  0  0  0  0  0  0  0
    4.1284    2.5098    0.0000 H   0  0  0  0  0  0  0  0  0  0  0  0
    3.3008    2.7994    0.0000 H   0  0  0  0  0  0  0  0  0  0  0  0
    3.0112    1.9718    0.0000 H   0  0  0  0  0  0  0  0  0  0  0  0
  1  2  1  0  0  0  0
  1  3  1  0  0  0  0
  1  4  1  0  0  0  0
  1 16  1  6  0  0  0
  2  3  1  0  0  0  0
  2  8  1  0  0  0  0
  2  9  1  0  0  0  0
  3  5  1  0  0  0  0
  3 17  1  6  0  0  0
  4  6  1  0  0  0  0
  4  7  1  0  0  0  0
  4 18  1  1  0  0  0
  5 10  1  0  0  0  0
  5 19  1  0  0  0  0
  5 20  1  0  0  0  0
  6 11  1  0  0  0  0
  6 14  1  6  0  0  0
  6 21  1  0  0  0  0
  7 12  1  0  0  0  0
  7 13  2  0  0  0  0
  8 22  1  0  0  0  0
  8 23  1  0  0  0  0
  8 24  1  0  0  0  0
  9 25  1  0  0  0  0
  9 26  1  0  0  0  0
  9 27  1  0  0  0  0
 10 13  1  0  0  0  0
 10 28  1  0  0  0  0
 10 29  1  0  0  0  0
 11 12  1  0  0  0  0
 11 30  1  0  0  0  0
 11 31  1  0  0  0  0
 12 32  1  0  0  0  0
 12 33  1  0  0  0  0
 13 15  1  0  0  0  0
 14 34  1  0  0  0  0
 14 35  1  0  0  0  0
 14 36  1  0  0  0  0
 15 37  1  0  0  0  0
 15 38  1  0  0  0  0
 15 39  1  0  0  0  0
M  END
> <PUBCHEM_COMPOUND_CID>
10910653

> <PUBCHEM_COMPOUND_CANONICALIZED>
1

> <PUBCHEM_CACTVS_COMPLEXITY>
321

> <PUBCHEM_CACTVS_HBOND_ACCEPTOR>
0

> <PUBCHEM_CACTVS_HBOND_DONOR>
0

> <PUBCHEM_CACTVS_ROTATABLE_BOND>
0

> <PUBCHEM_CACTVS_SUBSKEYS>
AAADceBwAAAAAAAAAAAAAAAAGAAAAYAAAAAAAAAABAAQAACAAAAAGAAAAAAADwCAAAACAAAAAACAAgBAAAAAAAAgAAAACAAAAAgAAAIAAAAAAAAAgAAIAAMAgMAPgAAAAAAAAAAAAAAAAAAAAAAACAAAAA==

> <PUBCHEM_IUPAC_OPENEYE_NAME>
(1aR,7R,7aS,7bR)-1,1,4,7-tetramethyl-1a,2,3,5,6,7,7a,7b-octahydrocyclopropa[e]azulene

> <PUBCHEM_IUPAC_CAS_NAME>
(1aR,7R,7aS,7bR)-1,1,4,7-tetramethyl-1a,2,3,5,6,7,7a,7b-octahydrocyclopropa[e]azulene

> <PUBCHEM_IUPAC_NAME_MARKUP>
(1<I>a</I><I>R</I>,7<I>R</I>,7<I>a</I><I>S</I>,7<I>b</I><I>R</I>)-1,1,4,7-tetramethyl-1<I>a</I>,2,3,5,6,7,7<I>a</I>,7<I>b</I>-octahydrocyclopropa[e]azulene

> <PUBCHEM_IUPAC_NAME>
(1aR,7R,7aS,7bR)-1,1,4,7-tetramethyl-1a,2,3,5,6,7,7a,7b-octahydrocyclopropa[e]azulene

> <PUBCHEM_IUPAC_SYSTEMATIC_NAME>
(1aR,7R,7aS,7bR)-1,1,4,7-tetramethyl-1a,2,3,5,6,7,7a,7b-octahydrocyclopropa[e]azulene

> <PUBCHEM_IUPAC_TRADITIONAL_NAME>
(1aR,7R,7aS,7bR)-1,1,4,7-tetramethyl-1a,2,3,5,6,7,7a,7b-octahydrocycloprop[e]azulene

> <PUBCHEM_IUPAC_INCHI>
InChI=1S/C15H24/c1-9-6-8-12-14(15(12,3)4)13-10(2)5-7-11(9)13/h10,12-14H,5-8H2,1-4H3/t10-,12-,13-,14-/m1/s1

> <PUBCHEM_IUPAC_INCHIKEY>
WGTRJVCFDUCKCM-FMKGYKFTSA-N

> <PUBCHEM_XLOGP3_AA>
4

> <PUBCHEM_EXACT_MASS>
204.187800766

> <PUBCHEM_MOLECULAR_FORMULA>
C15H24

> <PUBCHEM_MOLECULAR_WEIGHT>
204.35

> <PUBCHEM_SMILES>
C[C@@H]1CCC2=C(CC[C@@H]3[C@H]([C@H]12)C3(C)C)C

> <PUBCHEM_CONNECTIVITY_SMILES>
CC1CCC2=C(CCC3C(C12)C3(C)C)C

> <PUBCHEM_CACTVS_TPSA>
0

> <PUBCHEM_MONOISOTOPIC_WEIGHT>
204.187800766

> <PUBCHEM_TOTAL_CHARGE>
0

> <PUBCHEM_HEAVY_ATOM_COUNT>
15

> <PUBCHEM_ATOM_DEF_STEREO_COUNT>
4

> <PUBCHEM_ATOM_UDEF_STEREO_COUNT>
0

> <PUBCHEM_BOND_DEF_STEREO_COUNT>
0

> <PUBCHEM_BOND_UDEF_STEREO_COUNT>
0

> <PUBCHEM_ISOTOPIC_ATOM_COUNT>
0

> <PUBCHEM_COMPONENT_COUNT>
1

> <PUBCHEM_CACTVS_TAUTO_COUNT>
-1

> <PUBCHEM_COORDINATE_TYPE>
1
5
255

> <PUBCHEM_BONDANNOTATIONS>
1  16  6
3  17  6
4  18  5
6  14  6

$$$$
