10930591
  -OEChem-05122608542D

 23 24  0     0  0  0  0  0  0999 V2000
    2.0000   -0.8794    0.0000 Br  0  0  0  0  0  0  0  0  0  0  0  0
    5.4641   -0.8794    0.0000 Br  0  0  0  0  0  0  0  0  0  0  0  0
    2.4465    1.6527    0.0000 Br  0  0  0  0  0  0  0  0  0  0  0  0
    5.7017    0.4679    0.0000 Br  0  0  0  0  0  0  0  0  0  0  0  0
    2.0000   -2.8794    0.0000 Br  0  0  0  0  0  0  0  0  0  0  0  0
    3.7321   -3.8794    0.0000 Br  0  0  0  0  0  0  0  0  0  0  0  0
    5.1001    3.8794    0.0000 Br  0  0  0  0  0  0  0  0  0  0  0  0
    3.7321    0.1206    0.0000 O   0  0  0  0  0  0  0  0  0  0  0  0
    3.7321   -0.8794    0.0000 C   0  0  0  0  0  0  0  0  0  0  0  0
    4.0741    1.0603    0.0000 C   0  0  0  0  0  0  0  0  0  0  0  0
    2.8660   -1.3794    0.0000 C   0  0  0  0  0  0  0  0  0  0  0  0
    4.5981   -1.3794    0.0000 C   0  0  0  0  0  0  0  0  0  0  0  0
    3.4313    1.8264    0.0000 C   0  0  0  0  0  0  0  0  0  0  0  0
    5.0589    1.2340    0.0000 C   0  0  0  0  0  0  0  0  0  0  0  0
    2.8660   -2.3794    0.0000 C   0  0  0  0  0  0  0  0  0  0  0  0
    4.5981   -2.3794    0.0000 C   0  0  0  0  0  0  0  0  0  0  0  0
    3.7321   -2.8794    0.0000 C   0  0  0  0  0  0  0  0  0  0  0  0
    3.7733    2.7660    0.0000 C   0  0  0  0  0  0  0  0  0  0  0  0
    5.4009    2.1737    0.0000 C   0  0  0  0  0  0  0  0  0  0  0  0
    4.7581    2.9397    0.0000 C   0  0  0  0  0  0  0  0  0  0  0  0
    5.1350   -2.6894    0.0000 H   0  0  0  0  0  0  0  0  0  0  0  0
    3.3748    3.2410    0.0000 H   0  0  0  0  0  0  0  0  0  0  0  0
    6.0115    2.2813    0.0000 H   0  0  0  0  0  0  0  0  0  0  0  0
  1 11  1  0  0  0  0
  2 12  1  0  0  0  0
  3 13  1  0  0  0  0
  4 14  1  0  0  0  0
  5 15  1  0  0  0  0
  6 17  1  0  0  0  0
  7 20  1  0  0  0  0
  8  9  1  0  0  0  0
  8 10  1  0  0  0  0
  9 11  2  0  0  0  0
  9 12  1  0  0  0  0
 10 13  2  0  0  0  0
 10 14  1  0  0  0  0
 11 15  1  0  0  0  0
 12 16  2  0  0  0  0
 13 18  1  0  0  0  0
 14 19  2  0  0  0  0
 15 17  2  0  0  0  0
 16 17  1  0  0  0  0
 16 21  1  0  0  0  0
 18 20  2  0  0  0  0
 18 22  1  0  0  0  0
 19 20  1  0  0  0  0
 19 23  1  0  0  0  0
M  END
> <PUBCHEM_COMPOUND_CID>
10930591

> <PUBCHEM_COMPOUND_CANONICALIZED>
1

> <PUBCHEM_CACTVS_COMPLEXITY>
319

> <PUBCHEM_CACTVS_HBOND_ACCEPTOR>
1

> <PUBCHEM_CACTVS_HBOND_DONOR>
0

> <PUBCHEM_CACTVS_ROTATABLE_BOND>
2

> <PUBCHEM_CACTVS_SUBSKEYS>
AAADcQBwIAAAHAAAAAAAAAAAAAAAAAAAAAAwYAAAAAAAAAABQAAAGgBAAAABqASAkAAwBoAABACAACBCAAACCAAgIAQAiAAECKgMJiKEMRqCOCCkwBEIqheAQAAAABAEAIAgBAEAIAgBAEAIAgAAAAAAAA==

> <PUBCHEM_IUPAC_OPENEYE_NAME>
1,2,3,5-tetrabromo-4-(2,4,6-tribromophenoxy)benzene

> <PUBCHEM_IUPAC_CAS_NAME>
1,2,3,5-tetrabromo-4-(2,4,6-tribromophenoxy)benzene

> <PUBCHEM_IUPAC_NAME_MARKUP>
1,2,3,5-tetrabromo-4-(2,4,6-tribromophenoxy)benzene

> <PUBCHEM_IUPAC_NAME>
1,2,3,5-tetrabromo-4-(2,4,6-tribromophenoxy)benzene

> <PUBCHEM_IUPAC_SYSTEMATIC_NAME>
1,2,3,5-tetrakis(bromanyl)-4-[2,4,6-tris(bromanyl)phenoxy]benzene

> <PUBCHEM_IUPAC_TRADITIONAL_NAME>
1,2,3,5-tetrabromo-4-(2,4,6-tribromophenoxy)benzene

> <PUBCHEM_IUPAC_INCHI>
InChI=1S/C12H3Br7O/c13-4-1-6(15)11(7(16)2-4)20-12-8(17)3-5(14)9(18)10(12)19/h1-3H

> <PUBCHEM_IUPAC_INCHIKEY>
JHDCZVAQPRXHEL-UHFFFAOYSA-N

> <PUBCHEM_XLOGP3_AA>
8.3

> <PUBCHEM_EXACT_MASS>
721.44060

> <PUBCHEM_MOLECULAR_FORMULA>
C12H3Br7O

> <PUBCHEM_MOLECULAR_WEIGHT>
722.5

> <PUBCHEM_SMILES>
C1=C(C=C(C(=C1Br)OC2=C(C(=C(C=C2Br)Br)Br)Br)Br)Br

> <PUBCHEM_CONNECTIVITY_SMILES>
C1=C(C=C(C(=C1Br)OC2=C(C(=C(C=C2Br)Br)Br)Br)Br)Br

> <PUBCHEM_CACTVS_TPSA>
9.2

> <PUBCHEM_MONOISOTOPIC_WEIGHT>
715.44675

> <PUBCHEM_TOTAL_CHARGE>
0

> <PUBCHEM_HEAVY_ATOM_COUNT>
20

> <PUBCHEM_ATOM_DEF_STEREO_COUNT>
0

> <PUBCHEM_ATOM_UDEF_STEREO_COUNT>
0

> <PUBCHEM_BOND_DEF_STEREO_COUNT>
0

> <PUBCHEM_BOND_UDEF_STEREO_COUNT>
0

> <PUBCHEM_ISOTOPIC_ATOM_COUNT>
0

> <PUBCHEM_COMPONENT_COUNT>
1

> <PUBCHEM_CACTVS_TAUTO_COUNT>
-1

> <PUBCHEM_COORDINATE_TYPE>
1
5
255

> <PUBCHEM_BONDANNOTATIONS>
10  13  8
10  14  8
11  15  8
12  16  8
13  18  8
14  19  8
15  17  8
16  17  8
18  20  8
19  20  8
9  11  8
9  12  8

$$$$
