1099
  -OEChem-05122609562D

  4  3  0     0  0  0  0  0  0999 V2000
    2.8660    0.2500    0.0000 S   0  0  0  0  0  0  0  0  0  0  0  0
    2.0000    0.7500    0.0000 O   0  5  0  0  0  0  0  0  0  0  0  0
    2.8660   -0.7500    0.0000 O   0  5  0  0  0  0  0  0  0  0  0  0
    3.7321    0.7500    0.0000 O   0  0  0  0  0  0  0  0  0  0  0  0
  1  2  1  0  0  0  0
  1  3  1  0  0  0  0
  1  4  2  0  0  0  0
M  CHG  2   2  -1   3  -1
M  END
> <PUBCHEM_COMPOUND_CID>
1099

> <PUBCHEM_COMPOUND_CANONICALIZED>
1

> <PUBCHEM_CACTVS_COMPLEXITY>
18.8

> <PUBCHEM_CACTVS_HBOND_ACCEPTOR>
4

> <PUBCHEM_CACTVS_HBOND_DONOR>
0

> <PUBCHEM_CACTVS_ROTATABLE_BOND>
0

> <PUBCHEM_CACTVS_SUBSKEYS>
AAADcQAAMABAAAAAAAAAAAAAAAAAAAAAAAAAAAAAAAAAAAAAAAAAAAAAAAAAAAAAAAAAAAAAAAAAAAAAACAAAAAAAAAAAAAAAAAAAAAAAAAAAAAAAAAAAAAAAAAAAAAAAAAAAAAAAAAAAAAAAAAAAAAAAA==

> <PUBCHEM_IUPAC_OPENEYE_NAME>
sulfite

> <PUBCHEM_IUPAC_CAS_NAME>
sulfite

> <PUBCHEM_IUPAC_NAME_MARKUP>
sulfite

> <PUBCHEM_IUPAC_NAME>
sulfite

> <PUBCHEM_IUPAC_SYSTEMATIC_NAME>
sulfite

> <PUBCHEM_IUPAC_TRADITIONAL_NAME>
sulfite

> <PUBCHEM_IUPAC_INCHI>
InChI=1S/H2O3S/c1-4(2)3/h(H2,1,2,3)/p-2

> <PUBCHEM_IUPAC_INCHIKEY>
LSNNMFCWUKXFEE-UHFFFAOYSA-L

> <PUBCHEM_XLOGP3_AA>
-1.6

> <PUBCHEM_EXACT_MASS>
79.95681503

> <PUBCHEM_MOLECULAR_FORMULA>
O3S-2

> <PUBCHEM_MOLECULAR_WEIGHT>
80.07

> <PUBCHEM_SMILES>
[O-]S(=O)[O-]

> <PUBCHEM_CONNECTIVITY_SMILES>
[O-]S(=O)[O-]

> <PUBCHEM_CACTVS_TPSA>
82.4

> <PUBCHEM_MONOISOTOPIC_WEIGHT>
79.95681503

> <PUBCHEM_TOTAL_CHARGE>
-2

> <PUBCHEM_HEAVY_ATOM_COUNT>
4

> <PUBCHEM_ATOM_DEF_STEREO_COUNT>
0

> <PUBCHEM_ATOM_UDEF_STEREO_COUNT>
0

> <PUBCHEM_BOND_DEF_STEREO_COUNT>
0

> <PUBCHEM_BOND_UDEF_STEREO_COUNT>
0

> <PUBCHEM_ISOTOPIC_ATOM_COUNT>
0

> <PUBCHEM_COMPONENT_COUNT>
1

> <PUBCHEM_CACTVS_TAUTO_COUNT>
-1

> <PUBCHEM_COORDINATE_TYPE>
1
5
255

$$$$
