10994425
  -OEChem-05122609392D

 32 31  0     0  0  0  0  0  0999 V2000
    8.2331   -1.1160    0.0000 F   0  0  0  0  0  0  0  0  0  0  0  0
    7.2331    0.6160    0.0000 F   0  0  0  0  0  0  0  0  0  0  0  0
    8.0991    1.1160    0.0000 F   0  0  0  0  0  0  0  0  0  0  0  0
    9.0991   -0.6160    0.0000 F   0  0  0  0  0  0  0  0  0  0  0  0
    6.3671    0.1160    0.0000 F   0  0  0  0  0  0  0  0  0  0  0  0
    7.3671   -1.6160    0.0000 F   0  0  0  0  0  0  0  0  0  0  0  0
    9.9651   -0.1160    0.0000 F   0  0  0  0  0  0  0  0  0  0  0  0
    8.9651    1.6160    0.0000 F   0  0  0  0  0  0  0  0  0  0  0  0
    5.5010   -0.3840    0.0000 F   0  0  0  0  0  0  0  0  0  0  0  0
    6.5010   -2.1160    0.0000 F   0  0  0  0  0  0  0  0  0  0  0  0
    4.6350   -0.8840    0.0000 F   0  0  0  0  0  0  0  0  0  0  0  0
    5.6350   -2.6160    0.0000 F   0  0  0  0  0  0  0  0  0  0  0  0
   10.8312    0.3840    0.0000 F   0  0  0  0  0  0  0  0  0  0  0  0
    9.8312    2.1160    0.0000 F   0  0  0  0  0  0  0  0  0  0  0  0
   12.0632    2.2500    0.0000 F   0  0  0  0  0  0  0  0  0  0  0  0
   11.6972    0.8840    0.0000 F   0  0  0  0  0  0  0  0  0  0  0  0
   10.6972    2.6160    0.0000 F   0  0  0  0  0  0  0  0  0  0  0  0
    2.5369   -2.2500    0.0000 O   0  0  0  0  0  0  0  0  0  0  0  0
    3.4030   -0.7500    0.0000 O   0  0  0  0  0  0  0  0  0  0  0  0
    7.7331   -0.2500    0.0000 C   0  0  0  0  0  0  0  0  0  0  0  0
    8.5991    0.2500    0.0000 C   0  0  0  0  0  0  0  0  0  0  0  0
    6.8671   -0.7500    0.0000 C   0  0  0  0  0  0  0  0  0  0  0  0
    9.4651    0.7500    0.0000 C   0  0  0  0  0  0  0  0  0  0  0  0
    6.0010   -1.2500    0.0000 C   0  0  0  0  0  0  0  0  0  0  0  0
    5.1350   -1.7500    0.0000 C   0  0  0  0  0  0  0  0  0  0  0  0
   10.3312    1.2500    0.0000 C   0  0  0  0  0  0  0  0  0  0  0  0
    4.2690   -2.2500    0.0000 C   0  0  0  0  0  0  0  0  0  0  0  0
   11.1972    1.7500    0.0000 C   0  0  0  0  0  0  0  0  0  0  0  0
    3.4030   -1.7500    0.0000 C   0  0  0  0  0  0  0  0  0  0  0  0
    3.8705   -2.7250    0.0000 H   0  0  0  0  0  0  0  0  0  0  0  0
    4.6675   -2.7250    0.0000 H   0  0  0  0  0  0  0  0  0  0  0  0
    2.0000   -1.9400    0.0000 H   0  0  0  0  0  0  0  0  0  0  0  0
  1 20  1  0  0  0  0
  2 20  1  0  0  0  0
  3 21  1  0  0  0  0
  4 21  1  0  0  0  0
  5 22  1  0  0  0  0
  6 22  1  0  0  0  0
  7 23  1  0  0  0  0
  8 23  1  0  0  0  0
  9 24  1  0  0  0  0
 10 24  1  0  0  0  0
 11 25  1  0  0  0  0
 12 25  1  0  0  0  0
 13 26  1  0  0  0  0
 14 26  1  0  0  0  0
 15 28  1  0  0  0  0
 16 28  1  0  0  0  0
 17 28  1  0  0  0  0
 18 29  1  0  0  0  0
 18 32  1  0  0  0  0
 19 29  2  0  0  0  0
 20 21  1  0  0  0  0
 20 22  1  0  0  0  0
 21 23  1  0  0  0  0
 22 24  1  0  0  0  0
 23 26  1  0  0  0  0
 24 25  1  0  0  0  0
 25 27  1  0  0  0  0
 26 28  1  0  0  0  0
 27 29  1  0  0  0  0
 27 30  1  0  0  0  0
 27 31  1  0  0  0  0
M  END
> <PUBCHEM_COMPOUND_CID>
10994425

> <PUBCHEM_COMPOUND_CANONICALIZED>
1

> <PUBCHEM_CACTVS_COMPLEXITY>
631

> <PUBCHEM_CACTVS_HBOND_ACCEPTOR>
19

> <PUBCHEM_CACTVS_HBOND_DONOR>
1

> <PUBCHEM_CACTVS_ROTATABLE_BOND>
8

> <PUBCHEM_CACTVS_SUBSKEYS>
AAADcQBwMcAAAAAAAAAAAAAAAAAAAAAAAAAAAAAAAAAAAAAAAAAAGwAACAAACACAgBAACAAAAgAIAACQCAAAAAAAAAAAAAEAAAAAABIAAAAAQAAEAAAAAAGIyKCAAAAAAAAAAAAAAAAAAAAAAAAAAAAAAA==

> <PUBCHEM_IUPAC_OPENEYE_NAME>
3,3,4,4,5,5,6,6,7,7,8,8,9,9,10,10,10-heptadecafluorodecanoic acid

> <PUBCHEM_IUPAC_CAS_NAME>
3,3,4,4,5,5,6,6,7,7,8,8,9,9,10,10,10-heptadecafluorodecanoic acid

> <PUBCHEM_IUPAC_NAME_MARKUP>
3,3,4,4,5,5,6,6,7,7,8,8,9,9,10,10,10-heptadecafluorodecanoic acid

> <PUBCHEM_IUPAC_NAME>
3,3,4,4,5,5,6,6,7,7,8,8,9,9,10,10,10-heptadecafluorodecanoic acid

> <PUBCHEM_IUPAC_SYSTEMATIC_NAME>
3,3,4,4,5,5,6,6,7,7,8,8,9,9,10,10,10-heptadecakis(fluoranyl)decanoic acid

> <PUBCHEM_IUPAC_TRADITIONAL_NAME>
3,3,4,4,5,5,6,6,7,7,8,8,9,9,10,10,10-heptadecafluorocapric acid

> <PUBCHEM_IUPAC_INCHI>
InChI=1S/C10H3F17O2/c11-3(12,1-2(28)29)4(13,14)5(15,16)6(17,18)7(19,20)8(21,22)9(23,24)10(25,26)27/h1H2,(H,28,29)

> <PUBCHEM_IUPAC_INCHIKEY>
XTBXSCIWOVSSGB-UHFFFAOYSA-N

> <PUBCHEM_XLOGP3_AA>
5.5

> <PUBCHEM_EXACT_MASS>
477.9861581

> <PUBCHEM_MOLECULAR_FORMULA>
C10H3F17O2

> <PUBCHEM_MOLECULAR_WEIGHT>
478.10

> <PUBCHEM_SMILES>
C(C(=O)O)C(C(C(C(C(C(C(C(F)(F)F)(F)F)(F)F)(F)F)(F)F)(F)F)(F)F)(F)F

> <PUBCHEM_CONNECTIVITY_SMILES>
C(C(=O)O)C(C(C(C(C(C(C(C(F)(F)F)(F)F)(F)F)(F)F)(F)F)(F)F)(F)F)(F)F

> <PUBCHEM_CACTVS_TPSA>
37.3

> <PUBCHEM_MONOISOTOPIC_WEIGHT>
477.9861581

> <PUBCHEM_TOTAL_CHARGE>
0

> <PUBCHEM_HEAVY_ATOM_COUNT>
29

> <PUBCHEM_ATOM_DEF_STEREO_COUNT>
0

> <PUBCHEM_ATOM_UDEF_STEREO_COUNT>
0

> <PUBCHEM_BOND_DEF_STEREO_COUNT>
0

> <PUBCHEM_BOND_UDEF_STEREO_COUNT>
0

> <PUBCHEM_ISOTOPIC_ATOM_COUNT>
0

> <PUBCHEM_COMPONENT_COUNT>
1

> <PUBCHEM_CACTVS_TAUTO_COUNT>
-1

> <PUBCHEM_COORDINATE_TYPE>
1
5
255

$$$$
