11001391
  -OEChem-05122608322D

 44 44  0     0  0  0  0  0  0999 V2000
    6.0010    2.5000    0.0000 O   0  0  0  0  0  0  0  0  0  0  0  0
    4.2690   -2.5000    0.0000 O   0  0  0  0  0  0  0  0  0  0  0  0
    7.7331    6.5000    0.0000 O   0  0  0  0  0  0  0  0  0  0  0  0
    2.5369   -6.5000    0.0000 O   0  0  0  0  0  0  0  0  0  0  0  0
    4.2690    2.5000    0.0000 O   0  0  0  0  0  0  0  0  0  0  0  0
    6.0010   -2.5000    0.0000 O   0  0  0  0  0  0  0  0  0  0  0  0
    6.8671    4.0000    0.0000 C   0  0  0  0  0  0  0  0  0  0  0  0
    3.4030   -4.0000    0.0000 C   0  0  0  0  0  0  0  0  0  0  0  0
    6.8671    5.0000    0.0000 C   0  0  0  0  0  0  0  0  0  0  0  0
    3.4030   -5.0000    0.0000 C   0  0  0  0  0  0  0  0  0  0  0  0
    6.0010    3.5000    0.0000 C   0  0  0  0  0  0  0  0  0  0  0  0
    4.2690   -3.5000    0.0000 C   0  0  0  0  0  0  0  0  0  0  0  0
    7.7331    5.5000    0.0000 C   0  0  0  0  0  0  0  0  0  0  0  0
    2.5369   -5.5000    0.0000 C   0  0  0  0  0  0  0  0  0  0  0  0
    5.1350    1.0000    0.0000 C   0  0  0  0  0  0  0  0  0  0  0  0
    5.1350   -1.0000    0.0000 C   0  0  0  0  0  0  0  0  0  0  0  0
    5.1350    2.0000    0.0000 C   0  0  0  0  0  0  0  0  0  0  0  0
    5.1350   -2.0000    0.0000 C   0  0  0  0  0  0  0  0  0  0  0  0
    6.0010    0.5000    0.0000 C   0  0  0  0  0  0  0  0  0  0  0  0
    6.0010   -0.5000    0.0000 C   0  0  0  0  0  0  0  0  0  0  0  0
    4.2690    0.5000    0.0000 C   0  0  0  0  0  0  0  0  0  0  0  0
    4.2690   -0.5000    0.0000 C   0  0  0  0  0  0  0  0  0  0  0  0
    7.0791    3.4174    0.0000 H   0  0  0  0  0  0  0  0  0  0  0  0
    7.4776    4.1077    0.0000 H   0  0  0  0  0  0  0  0  0  0  0  0
    3.1909   -3.4174    0.0000 H   0  0  0  0  0  0  0  0  0  0  0  0
    2.7924   -4.1077    0.0000 H   0  0  0  0  0  0  0  0  0  0  0  0
    6.6550    5.5826    0.0000 H   0  0  0  0  0  0  0  0  0  0  0  0
    6.2565    4.8923    0.0000 H   0  0  0  0  0  0  0  0  0  0  0  0
    3.6150   -5.5826    0.0000 H   0  0  0  0  0  0  0  0  0  0  0  0
    4.0135   -4.8923    0.0000 H   0  0  0  0  0  0  0  0  0  0  0  0
    5.7890    4.0826    0.0000 H   0  0  0  0  0  0  0  0  0  0  0  0
    5.3905    3.3923    0.0000 H   0  0  0  0  0  0  0  0  0  0  0  0
    4.4810   -4.0826    0.0000 H   0  0  0  0  0  0  0  0  0  0  0  0
    4.8796   -3.3923    0.0000 H   0  0  0  0  0  0  0  0  0  0  0  0
    7.9451    4.9174    0.0000 H   0  0  0  0  0  0  0  0  0  0  0  0
    8.3437    5.6077    0.0000 H   0  0  0  0  0  0  0  0  0  0  0  0
    2.3249   -4.9174    0.0000 H   0  0  0  0  0  0  0  0  0  0  0  0
    1.9264   -5.6077    0.0000 H   0  0  0  0  0  0  0  0  0  0  0  0
    6.5380    0.8100    0.0000 H   0  0  0  0  0  0  0  0  0  0  0  0
    6.5380   -0.8100    0.0000 H   0  0  0  0  0  0  0  0  0  0  0  0
    3.7321    0.8100    0.0000 H   0  0  0  0  0  0  0  0  0  0  0  0
    3.7321   -0.8100    0.0000 H   0  0  0  0  0  0  0  0  0  0  0  0
    8.2700    6.8100    0.0000 H   0  0  0  0  0  0  0  0  0  0  0  0
    2.0000   -6.8100    0.0000 H   0  0  0  0  0  0  0  0  0  0  0  0
  1 11  1  0  0  0  0
  1 17  1  0  0  0  0
  2 12  1  0  0  0  0
  2 18  1  0  0  0  0
  3 13  1  0  0  0  0
  3 43  1  0  0  0  0
  4 14  1  0  0  0  0
  4 44  1  0  0  0  0
  5 17  2  0  0  0  0
  6 18  2  0  0  0  0
  7  9  1  0  0  0  0
  7 11  1  0  0  0  0
  7 23  1  0  0  0  0
  7 24  1  0  0  0  0
  8 10  1  0  0  0  0
  8 12  1  0  0  0  0
  8 25  1  0  0  0  0
  8 26  1  0  0  0  0
  9 13  1  0  0  0  0
  9 27  1  0  0  0  0
  9 28  1  0  0  0  0
 10 14  1  0  0  0  0
 10 29  1  0  0  0  0
 10 30  1  0  0  0  0
 11 31  1  0  0  0  0
 11 32  1  0  0  0  0
 12 33  1  0  0  0  0
 12 34  1  0  0  0  0
 13 35  1  0  0  0  0
 13 36  1  0  0  0  0
 14 37  1  0  0  0  0
 14 38  1  0  0  0  0
 15 17  1  0  0  0  0
 15 19  2  0  0  0  0
 15 21  1  0  0  0  0
 16 18  1  0  0  0  0
 16 20  2  0  0  0  0
 16 22  1  0  0  0  0
 19 20  1  0  0  0  0
 19 39  1  0  0  0  0
 20 40  1  0  0  0  0
 21 22  2  0  0  0  0
 21 41  1  0  0  0  0
 22 42  1  0  0  0  0
M  END
> <PUBCHEM_COMPOUND_CID>
11001391

> <PUBCHEM_COMPOUND_CANONICALIZED>
1

> <PUBCHEM_CACTVS_COMPLEXITY>
291

> <PUBCHEM_CACTVS_HBOND_ACCEPTOR>
6

> <PUBCHEM_CACTVS_HBOND_DONOR>
2

> <PUBCHEM_CACTVS_ROTATABLE_BOND>
12

> <PUBCHEM_CACTVS_SUBSKEYS>
AAADceB4OAAAAAAAAAAAAAAAAAAAAAAAAAAwAAAAAAAAAAABAAAAGgAACAAADACgmAIwCIAABgCIAiDSCAACAAAkAAAIiAEACMgINjKANRiCcQAkwAEIqYfIyDCOQAAAAAAAAACAAAAAAAAAAAAAAAAAAA==

> <PUBCHEM_IUPAC_OPENEYE_NAME>
bis(4-hydroxybutyl) benzene-1,4-dicarboxylate

> <PUBCHEM_IUPAC_CAS_NAME>
benzene-1,4-dicarboxylic acid bis(4-hydroxybutyl) ester

> <PUBCHEM_IUPAC_NAME_MARKUP>
bis(4-hydroxybutyl) benzene-1,4-dicarboxylate

> <PUBCHEM_IUPAC_NAME>
bis(4-hydroxybutyl) benzene-1,4-dicarboxylate

> <PUBCHEM_IUPAC_SYSTEMATIC_NAME>
bis(4-oxidanylbutyl) benzene-1,4-dicarboxylate

> <PUBCHEM_IUPAC_TRADITIONAL_NAME>
benzene-1,4-dicarboxylic acid bis(4-hydroxybutyl) ester

> <PUBCHEM_IUPAC_INCHI>
InChI=1S/C16H22O6/c17-9-1-3-11-21-15(19)13-5-7-14(8-6-13)16(20)22-12-4-2-10-18/h5-8,17-18H,1-4,9-12H2

> <PUBCHEM_IUPAC_INCHIKEY>
MRLFFZIIRRKXBJ-UHFFFAOYSA-N

> <PUBCHEM_XLOGP3>
3.1

> <PUBCHEM_EXACT_MASS>
310.14163842

> <PUBCHEM_MOLECULAR_FORMULA>
C16H22O6

> <PUBCHEM_MOLECULAR_WEIGHT>
310.34

> <PUBCHEM_SMILES>
C1=CC(=CC=C1C(=O)OCCCCO)C(=O)OCCCCO

> <PUBCHEM_CONNECTIVITY_SMILES>
C1=CC(=CC=C1C(=O)OCCCCO)C(=O)OCCCCO

> <PUBCHEM_CACTVS_TPSA>
93.1

> <PUBCHEM_MONOISOTOPIC_WEIGHT>
310.14163842

> <PUBCHEM_TOTAL_CHARGE>
0

> <PUBCHEM_HEAVY_ATOM_COUNT>
22

> <PUBCHEM_ATOM_DEF_STEREO_COUNT>
0

> <PUBCHEM_ATOM_UDEF_STEREO_COUNT>
0

> <PUBCHEM_BOND_DEF_STEREO_COUNT>
0

> <PUBCHEM_BOND_UDEF_STEREO_COUNT>
0

> <PUBCHEM_ISOTOPIC_ATOM_COUNT>
0

> <PUBCHEM_COMPONENT_COUNT>
1

> <PUBCHEM_CACTVS_TAUTO_COUNT>
-1

> <PUBCHEM_COORDINATE_TYPE>
1
5
255

> <PUBCHEM_BONDANNOTATIONS>
15  19  8
15  21  8
16  20  8
16  22  8
19  20  8
21  22  8

$$$$
