11028658
  -OEChem-05122608352D

 23 24  0     0  0  0  0  0  0999 V2000
    2.4465    1.6527    0.0000 Br  0  0  0  0  0  0  0  0  0  0  0  0
    2.0000   -0.8794    0.0000 Br  0  0  0  0  0  0  0  0  0  0  0  0
    5.7017    0.4679    0.0000 Br  0  0  0  0  0  0  0  0  0  0  0  0
    5.4641   -0.8794    0.0000 Br  0  0  0  0  0  0  0  0  0  0  0  0
    5.1001    3.8794    0.0000 Br  0  0  0  0  0  0  0  0  0  0  0  0
    3.7321   -3.8794    0.0000 Br  0  0  0  0  0  0  0  0  0  0  0  0
    3.7321    0.1206    0.0000 O   0  0  0  0  0  0  0  0  0  0  0  0
    4.0741    1.0603    0.0000 C   0  0  0  0  0  0  0  0  0  0  0  0
    3.7321   -0.8794    0.0000 C   0  0  0  0  0  0  0  0  0  0  0  0
    3.4313    1.8264    0.0000 C   0  0  0  0  0  0  0  0  0  0  0  0
    2.8660   -1.3794    0.0000 C   0  0  0  0  0  0  0  0  0  0  0  0
    5.0589    1.2340    0.0000 C   0  0  0  0  0  0  0  0  0  0  0  0
    4.5981   -1.3794    0.0000 C   0  0  0  0  0  0  0  0  0  0  0  0
    3.7733    2.7660    0.0000 C   0  0  0  0  0  0  0  0  0  0  0  0
    2.8660   -2.3794    0.0000 C   0  0  0  0  0  0  0  0  0  0  0  0
    5.4009    2.1737    0.0000 C   0  0  0  0  0  0  0  0  0  0  0  0
    4.5981   -2.3794    0.0000 C   0  0  0  0  0  0  0  0  0  0  0  0
    4.7581    2.9397    0.0000 C   0  0  0  0  0  0  0  0  0  0  0  0
    3.7321   -2.8794    0.0000 C   0  0  0  0  0  0  0  0  0  0  0  0
    3.3748    3.2410    0.0000 H   0  0  0  0  0  0  0  0  0  0  0  0
    2.3291   -2.6894    0.0000 H   0  0  0  0  0  0  0  0  0  0  0  0
    6.0115    2.2813    0.0000 H   0  0  0  0  0  0  0  0  0  0  0  0
    5.1350   -2.6894    0.0000 H   0  0  0  0  0  0  0  0  0  0  0  0
  1 10  1  0  0  0  0
  2 11  1  0  0  0  0
  3 12  1  0  0  0  0
  4 13  1  0  0  0  0
  5 18  1  0  0  0  0
  6 19  1  0  0  0  0
  7  8  1  0  0  0  0
  7  9  1  0  0  0  0
  8 10  2  0  0  0  0
  8 12  1  0  0  0  0
  9 11  2  0  0  0  0
  9 13  1  0  0  0  0
 10 14  1  0  0  0  0
 11 15  1  0  0  0  0
 12 16  2  0  0  0  0
 13 17  2  0  0  0  0
 14 18  2  0  0  0  0
 14 20  1  0  0  0  0
 15 19  2  0  0  0  0
 15 21  1  0  0  0  0
 16 18  1  0  0  0  0
 16 22  1  0  0  0  0
 17 19  1  0  0  0  0
 17 23  1  0  0  0  0
M  END
> <PUBCHEM_COMPOUND_CID>
11028658

> <PUBCHEM_COMPOUND_CANONICALIZED>
1

> <PUBCHEM_CACTVS_COMPLEXITY>
252

> <PUBCHEM_CACTVS_HBOND_ACCEPTOR>
1

> <PUBCHEM_CACTVS_HBOND_DONOR>
0

> <PUBCHEM_CACTVS_ROTATABLE_BOND>
2

> <PUBCHEM_CACTVS_SUBSKEYS>
AAADcYBwIAAAHAAAAAAAAAAAAAAAAAAAAAAwYAAAAAAAAAABQAAAGgBAAAABqASAkAAwBoAABACAACBCAAACCAAgIAQAiAAECKgMJiKEMRqCOCCkwBEIqheAQAAAABAAAAAgBAAAIAAAAEAIAAAAAAAAAA==

> <PUBCHEM_IUPAC_OPENEYE_NAME>
1,3,5-tribromo-2-(2,4,6-tribromophenoxy)benzene

> <PUBCHEM_IUPAC_CAS_NAME>
1,3,5-tribromo-2-(2,4,6-tribromophenoxy)benzene

> <PUBCHEM_IUPAC_NAME_MARKUP>
1,3,5-tribromo-2-(2,4,6-tribromophenoxy)benzene

> <PUBCHEM_IUPAC_NAME>
1,3,5-tribromo-2-(2,4,6-tribromophenoxy)benzene

> <PUBCHEM_IUPAC_SYSTEMATIC_NAME>
1,3,5-tris(bromanyl)-2-[2,4,6-tris(bromanyl)phenoxy]benzene

> <PUBCHEM_IUPAC_TRADITIONAL_NAME>
1,3,5-tribromo-2-(2,4,6-tribromophenoxy)benzene

> <PUBCHEM_IUPAC_INCHI>
InChI=1S/C12H4Br6O/c13-5-1-7(15)11(8(16)2-5)19-12-9(17)3-6(14)4-10(12)18/h1-4H

> <PUBCHEM_IUPAC_INCHIKEY>
HRSCBOSGEKXXSI-UHFFFAOYSA-N

> <PUBCHEM_XLOGP3_AA>
7.6

> <PUBCHEM_EXACT_MASS>
643.53009

> <PUBCHEM_MOLECULAR_FORMULA>
C12H4Br6O

> <PUBCHEM_MOLECULAR_WEIGHT>
643.6

> <PUBCHEM_SMILES>
C1=C(C=C(C(=C1Br)OC2=C(C=C(C=C2Br)Br)Br)Br)Br

> <PUBCHEM_CONNECTIVITY_SMILES>
C1=C(C=C(C(=C1Br)OC2=C(C=C(C=C2Br)Br)Br)Br)Br

> <PUBCHEM_CACTVS_TPSA>
9.2

> <PUBCHEM_MONOISOTOPIC_WEIGHT>
637.53624

> <PUBCHEM_TOTAL_CHARGE>
0

> <PUBCHEM_HEAVY_ATOM_COUNT>
19

> <PUBCHEM_ATOM_DEF_STEREO_COUNT>
0

> <PUBCHEM_ATOM_UDEF_STEREO_COUNT>
0

> <PUBCHEM_BOND_DEF_STEREO_COUNT>
0

> <PUBCHEM_BOND_UDEF_STEREO_COUNT>
0

> <PUBCHEM_ISOTOPIC_ATOM_COUNT>
0

> <PUBCHEM_COMPONENT_COUNT>
1

> <PUBCHEM_CACTVS_TAUTO_COUNT>
-1

> <PUBCHEM_COORDINATE_TYPE>
1
5
255

> <PUBCHEM_BONDANNOTATIONS>
10  14  8
11  15  8
12  16  8
13  17  8
14  18  8
15  19  8
16  18  8
17  19  8
8  10  8
8  12  8
9  11  8
9  13  8

$$$$
