11023622
  -OEChem-05122608082D

 64 63  0     0  0  0  0  0  0999 V2000
    2.0000   -3.4400    0.0000 N   0  0  0  0  0  0  0  0  0  0  0  0
    8.9282   -2.4400    0.0000 C   0  0  0  0  0  0  0  0  0  0  0  0
    8.0622   -2.9400    0.0000 C   0  0  0  0  0  0  0  0  0  0  0  0
    9.7942   -2.9400    0.0000 C   0  0  0  0  0  0  0  0  0  0  0  0
    7.1962   -2.4400    0.0000 C   0  0  0  0  0  0  0  0  0  0  0  0
   10.6603   -2.4400    0.0000 C   0  0  0  0  0  0  0  0  0  0  0  0
    6.3301   -2.9400    0.0000 C   0  0  0  0  0  0  0  0  0  0  0  0
   11.5263   -2.9400    0.0000 C   0  0  0  0  0  0  0  0  0  0  0  0
    5.4641   -2.4400    0.0000 C   0  0  0  0  0  0  0  0  0  0  0  0
   15.8564    0.5600    0.0000 C   0  0  0  0  0  0  0  0  0  0  0  0
   14.9904    0.0600    0.0000 C   0  0  0  0  0  0  0  0  0  0  0  0
   15.8564    1.5600    0.0000 C   0  0  0  0  0  0  0  0  0  0  0  0
   14.9904   -0.9400    0.0000 C   0  0  0  0  0  0  0  0  0  0  0  0
   12.3923   -2.4400    0.0000 C   0  0  0  0  0  0  0  0  0  0  0  0
   16.7224    2.0600    0.0000 C   0  0  0  0  0  0  0  0  0  0  0  0
   14.1244   -1.4400    0.0000 C   0  0  0  0  0  0  0  0  0  0  0  0
    4.5981   -2.9400    0.0000 C   0  0  0  0  0  0  0  0  0  0  0  0
   13.2583   -2.9400    0.0000 C   0  0  0  0  0  0  0  0  0  0  0  0
   14.1244   -2.4400    0.0000 C   0  0  0  0  0  0  0  0  0  0  0  0
   16.7224    3.0600    0.0000 C   0  0  0  0  0  0  0  0  0  0  0  0
    3.7321   -2.4400    0.0000 C   0  0  0  0  0  0  0  0  0  0  0  0
   17.5885    3.5600    0.0000 C   0  0  0  0  0  0  0  0  0  0  0  0
    2.8660   -2.9400    0.0000 C   0  0  0  0  0  0  0  0  0  0  0  0
    9.3267   -1.9651    0.0000 H   0  0  0  0  0  0  0  0  0  0  0  0
    8.5297   -1.9651    0.0000 H   0  0  0  0  0  0  0  0  0  0  0  0
    7.6637   -3.4150    0.0000 H   0  0  0  0  0  0  0  0  0  0  0  0
    8.4607   -3.4150    0.0000 H   0  0  0  0  0  0  0  0  0  0  0  0
    9.3957   -3.4150    0.0000 H   0  0  0  0  0  0  0  0  0  0  0  0
   10.1928   -3.4150    0.0000 H   0  0  0  0  0  0  0  0  0  0  0  0
    7.5947   -1.9651    0.0000 H   0  0  0  0  0  0  0  0  0  0  0  0
    6.7976   -1.9651    0.0000 H   0  0  0  0  0  0  0  0  0  0  0  0
   11.0588   -1.9651    0.0000 H   0  0  0  0  0  0  0  0  0  0  0  0
   10.2617   -1.9651    0.0000 H   0  0  0  0  0  0  0  0  0  0  0  0
    5.9316   -3.4150    0.0000 H   0  0  0  0  0  0  0  0  0  0  0  0
    6.7287   -3.4150    0.0000 H   0  0  0  0  0  0  0  0  0  0  0  0
   11.1278   -3.4150    0.0000 H   0  0  0  0  0  0  0  0  0  0  0  0
   11.9248   -3.4150    0.0000 H   0  0  0  0  0  0  0  0  0  0  0  0
    5.8626   -1.9651    0.0000 H   0  0  0  0  0  0  0  0  0  0  0  0
    5.0656   -1.9651    0.0000 H   0  0  0  0  0  0  0  0  0  0  0  0
   16.0685   -0.0226    0.0000 H   0  0  0  0  0  0  0  0  0  0  0  0
   16.4670    0.6677    0.0000 H   0  0  0  0  0  0  0  0  0  0  0  0
   14.7783    0.6426    0.0000 H   0  0  0  0  0  0  0  0  0  0  0  0
   14.3798   -0.0477    0.0000 H   0  0  0  0  0  0  0  0  0  0  0  0
   15.6444    2.1426    0.0000 H   0  0  0  0  0  0  0  0  0  0  0  0
   15.2458    1.4523    0.0000 H   0  0  0  0  0  0  0  0  0  0  0  0
   15.2024   -1.5226    0.0000 H   0  0  0  0  0  0  0  0  0  0  0  0
   15.6010   -0.8323    0.0000 H   0  0  0  0  0  0  0  0  0  0  0  0
   12.7908   -1.9651    0.0000 H   0  0  0  0  0  0  0  0  0  0  0  0
   11.9938   -1.9651    0.0000 H   0  0  0  0  0  0  0  0  0  0  0  0
   16.9345    1.4774    0.0000 H   0  0  0  0  0  0  0  0  0  0  0  0
   17.3330    2.1677    0.0000 H   0  0  0  0  0  0  0  0  0  0  0  0
   13.9123   -0.8574    0.0000 H   0  0  0  0  0  0  0  0  0  0  0  0
   13.5138   -1.5477    0.0000 H   0  0  0  0  0  0  0  0  0  0  0  0
    4.1996   -3.4150    0.0000 H   0  0  0  0  0  0  0  0  0  0  0  0
    4.9966   -3.4150    0.0000 H   0  0  0  0  0  0  0  0  0  0  0  0
   13.2583   -3.5600    0.0000 H   0  0  0  0  0  0  0  0  0  0  0  0
   14.6613   -2.7500    0.0000 H   0  0  0  0  0  0  0  0  0  0  0  0
   16.5104    3.6426    0.0000 H   0  0  0  0  0  0  0  0  0  0  0  0
   16.1119    2.9523    0.0000 H   0  0  0  0  0  0  0  0  0  0  0  0
    4.1306   -1.9651    0.0000 H   0  0  0  0  0  0  0  0  0  0  0  0
    3.3335   -1.9651    0.0000 H   0  0  0  0  0  0  0  0  0  0  0  0
   17.8985    3.0231    0.0000 H   0  0  0  0  0  0  0  0  0  0  0  0
   18.1254    3.8700    0.0000 H   0  0  0  0  0  0  0  0  0  0  0  0
   17.2785    4.0969    0.0000 H   0  0  0  0  0  0  0  0  0  0  0  0
  1 23  3  0  0  0  0
  2  3  1  0  0  0  0
  2  4  1  0  0  0  0
  2 24  1  0  0  0  0
  2 25  1  0  0  0  0
  3  5  1  0  0  0  0
  3 26  1  0  0  0  0
  3 27  1  0  0  0  0
  4  6  1  0  0  0  0
  4 28  1  0  0  0  0
  4 29  1  0  0  0  0
  5  7  1  0  0  0  0
  5 30  1  0  0  0  0
  5 31  1  0  0  0  0
  6  8  1  0  0  0  0
  6 32  1  0  0  0  0
  6 33  1  0  0  0  0
  7  9  1  0  0  0  0
  7 34  1  0  0  0  0
  7 35  1  0  0  0  0
  8 14  1  0  0  0  0
  8 36  1  0  0  0  0
  8 37  1  0  0  0  0
  9 17  1  0  0  0  0
  9 38  1  0  0  0  0
  9 39  1  0  0  0  0
 10 11  1  0  0  0  0
 10 12  1  0  0  0  0
 10 40  1  0  0  0  0
 10 41  1  0  0  0  0
 11 13  1  0  0  0  0
 11 42  1  0  0  0  0
 11 43  1  0  0  0  0
 12 15  1  0  0  0  0
 12 44  1  0  0  0  0
 12 45  1  0  0  0  0
 13 16  1  0  0  0  0
 13 46  1  0  0  0  0
 13 47  1  0  0  0  0
 14 18  1  0  0  0  0
 14 48  1  0  0  0  0
 14 49  1  0  0  0  0
 15 20  1  0  0  0  0
 15 50  1  0  0  0  0
 15 51  1  0  0  0  0
 16 19  1  0  0  0  0
 16 52  1  0  0  0  0
 16 53  1  0  0  0  0
 17 21  1  0  0  0  0
 17 54  1  0  0  0  0
 17 55  1  0  0  0  0
 18 19  2  0  0  0  0
 18 56  1  0  0  0  0
 19 57  1  0  0  0  0
 20 22  1  0  0  0  0
 20 58  1  0  0  0  0
 20 59  1  0  0  0  0
 21 23  1  0  0  0  0
 21 60  1  0  0  0  0
 21 61  1  0  0  0  0
 22 62  1  0  0  0  0
 22 63  1  0  0  0  0
 22 64  1  0  0  0  0
M  END
> <PUBCHEM_COMPOUND_CID>
11023622

> <PUBCHEM_COMPOUND_CANONICALIZED>
1

> <PUBCHEM_CACTVS_COMPLEXITY>
284

> <PUBCHEM_CACTVS_HBOND_ACCEPTOR>
1

> <PUBCHEM_CACTVS_HBOND_DONOR>
0

> <PUBCHEM_CACTVS_ROTATABLE_BOND>
18

> <PUBCHEM_CACTVS_SUBSKEYS>
AAADcfB6AAAAAAAAAAAAAAAAAAAAAAAAAAAAAAAAAAAAAAAAAAAAHAAAAAAACACBAAACAAAAAACQBCBCAAAAAAAgAAAICAAAAAgAgAIAAQAAAAAAgAAIAAsAgIAAAAAAAAAAAAAAAAAAAAAAAAAAAAAAAA==

> <PUBCHEM_IUPAC_OPENEYE_NAME>
(Z)-docos-13-enenitrile

> <PUBCHEM_IUPAC_CAS_NAME>
(Z)-13-docosenenitrile

> <PUBCHEM_IUPAC_NAME_MARKUP>
(<I>Z</I>)-docos-13-enenitrile

> <PUBCHEM_IUPAC_NAME>
(Z)-docos-13-enenitrile

> <PUBCHEM_IUPAC_SYSTEMATIC_NAME>
(Z)-docos-13-enenitrile

> <PUBCHEM_IUPAC_TRADITIONAL_NAME>
(Z)-docos-13-enenitrile

> <PUBCHEM_IUPAC_INCHI>
InChI=1S/C22H41N/c1-2-3-4-5-6-7-8-9-10-11-12-13-14-15-16-17-18-19-20-21-22-23/h9-10H,2-8,11-21H2,1H3/b10-9-

> <PUBCHEM_IUPAC_INCHIKEY>
WNVYKFYGFCBJSI-KTKRTIGZSA-N

> <PUBCHEM_XLOGP3>
9.2

> <PUBCHEM_EXACT_MASS>
319.323900312

> <PUBCHEM_MOLECULAR_FORMULA>
C22H41N

> <PUBCHEM_MOLECULAR_WEIGHT>
319.6

> <PUBCHEM_SMILES>
CCCCCCCC/C=C\CCCCCCCCCCCC#N

> <PUBCHEM_CONNECTIVITY_SMILES>
CCCCCCCCC=CCCCCCCCCCCCC#N

> <PUBCHEM_CACTVS_TPSA>
23.8

> <PUBCHEM_MONOISOTOPIC_WEIGHT>
319.323900312

> <PUBCHEM_TOTAL_CHARGE>
0

> <PUBCHEM_HEAVY_ATOM_COUNT>
23

> <PUBCHEM_ATOM_DEF_STEREO_COUNT>
0

> <PUBCHEM_ATOM_UDEF_STEREO_COUNT>
0

> <PUBCHEM_BOND_DEF_STEREO_COUNT>
1

> <PUBCHEM_BOND_UDEF_STEREO_COUNT>
0

> <PUBCHEM_ISOTOPIC_ATOM_COUNT>
0

> <PUBCHEM_COMPONENT_COUNT>
1

> <PUBCHEM_CACTVS_TAUTO_COUNT>
-1

> <PUBCHEM_COORDINATE_TYPE>
1
5
255

$$$$
