11073792
  -OEChem-05122609102D

 21 21  0     0  0  0  0  0  0999 V2000
    3.4013    1.7296    0.0000 O   0  0  0  0  0  0  0  0  0  0  0  0
    2.0000    0.7115    0.0000 O   0  0  0  0  0  0  0  0  0  0  0  0
    6.0503   -2.2312    0.0000 O   0  0  0  0  0  0  0  0  0  0  0  0
    4.0823   -1.5318    0.0000 N   0  0  0  0  0  0  0  0  0  0  0  0
    4.5823    0.0070    0.0000 C   0  0  0  0  0  0  0  0  0  0  0  0
    3.5823    0.0070    0.0000 C   0  0  0  0  0  0  0  0  0  0  0  0
    3.2733   -0.9440    0.0000 C   0  0  0  0  0  0  0  0  0  0  0  0
    4.8913   -0.9440    0.0000 C   0  0  0  0  0  0  0  0  0  0  0  0
    5.1701    0.8161    0.0000 C   0  0  0  0  0  0  0  0  0  0  0  0
    2.3222   -1.2530    0.0000 C   0  0  0  0  0  0  0  0  0  0  0  0
    2.9945    0.8161    0.0000 C   0  0  0  0  0  0  0  0  0  0  0  0
    5.8424   -1.2530    0.0000 C   0  0  0  0  0  0  0  0  0  0  0  0
    4.0823   -2.1518    0.0000 H   0  0  0  0  0  0  0  0  0  0  0  0
    5.6717    0.4516    0.0000 H   0  0  0  0  0  0  0  0  0  0  0  0
    5.5345    1.3176    0.0000 H   0  0  0  0  0  0  0  0  0  0  0  0
    4.6685    1.1805    0.0000 H   0  0  0  0  0  0  0  0  0  0  0  0
    2.1306   -0.6634    0.0000 H   0  0  0  0  0  0  0  0  0  0  0  0
    1.7326   -1.4446    0.0000 H   0  0  0  0  0  0  0  0  0  0  0  0
    2.5138   -1.8427    0.0000 H   0  0  0  0  0  0  0  0  0  0  0  0
    6.3031   -0.8382    0.0000 H   0  0  0  0  0  0  0  0  0  0  0  0
    3.0368    2.2312    0.0000 H   0  0  0  0  0  0  0  0  0  0  0  0
  1 11  1  0  0  0  0
  1 21  1  0  0  0  0
  2 11  2  0  0  0  0
  3 12  2  0  0  0  0
  4  7  1  0  0  0  0
  4  8  1  0  0  0  0
  4 13  1  0  0  0  0
  5  6  1  0  0  0  0
  5  8  2  0  0  0  0
  5  9  1  0  0  0  0
  6  7  2  0  0  0  0
  6 11  1  0  0  0  0
  7 10  1  0  0  0  0
  8 12  1  0  0  0  0
  9 14  1  0  0  0  0
  9 15  1  0  0  0  0
  9 16  1  0  0  0  0
 10 17  1  0  0  0  0
 10 18  1  0  0  0  0
 10 19  1  0  0  0  0
 12 20  1  0  0  0  0
M  END
> <PUBCHEM_COMPOUND_CID>
11073792

> <PUBCHEM_COMPOUND_CANONICALIZED>
1

> <PUBCHEM_CACTVS_COMPLEXITY>
204

> <PUBCHEM_CACTVS_HBOND_ACCEPTOR>
3

> <PUBCHEM_CACTVS_HBOND_DONOR>
2

> <PUBCHEM_CACTVS_ROTATABLE_BOND>
2

> <PUBCHEM_CACTVS_SUBSKEYS>
AAADccByMAAAAAAAAAAAAAAAAAAAAWAAAAAAAAAAAAAAAAABgAAAHgAQCAAADAihngICiJLJkgCoAwzwzACCgCAnACAAmSGwTNgIJnrAlLGEUYhm0AHI2Ue8DwAegAAAAAAAAAAAAAAAAAAAAAAAAAAAAA==

> <PUBCHEM_IUPAC_OPENEYE_NAME>
5-formyl-2,4-dimethyl-1H-pyrrole-3-carboxylic acid

> <PUBCHEM_IUPAC_CAS_NAME>
5-formyl-2,4-dimethyl-1H-pyrrole-3-carboxylic acid

> <PUBCHEM_IUPAC_NAME_MARKUP>
5-formyl-2,4-dimethyl-1<I>H</I>-pyrrole-3-carboxylic acid

> <PUBCHEM_IUPAC_NAME>
5-formyl-2,4-dimethyl-1H-pyrrole-3-carboxylic acid

> <PUBCHEM_IUPAC_SYSTEMATIC_NAME>
5-methanoyl-2,4-dimethyl-1H-pyrrole-3-carboxylic acid

> <PUBCHEM_IUPAC_TRADITIONAL_NAME>
5-formyl-2,4-dimethyl-1H-pyrrole-3-carboxylic acid

> <PUBCHEM_IUPAC_INCHI>
InChI=1S/C8H9NO3/c1-4-6(3-10)9-5(2)7(4)8(11)12/h3,9H,1-2H3,(H,11,12)

> <PUBCHEM_IUPAC_INCHIKEY>
YCIHQDVIAISDPS-UHFFFAOYSA-N

> <PUBCHEM_XLOGP3_AA>
0.8

> <PUBCHEM_EXACT_MASS>
167.058243149

> <PUBCHEM_MOLECULAR_FORMULA>
C8H9NO3

> <PUBCHEM_MOLECULAR_WEIGHT>
167.16

> <PUBCHEM_SMILES>
CC1=C(NC(=C1C(=O)O)C)C=O

> <PUBCHEM_CONNECTIVITY_SMILES>
CC1=C(NC(=C1C(=O)O)C)C=O

> <PUBCHEM_CACTVS_TPSA>
70.2

> <PUBCHEM_MONOISOTOPIC_WEIGHT>
167.058243149

> <PUBCHEM_TOTAL_CHARGE>
0

> <PUBCHEM_HEAVY_ATOM_COUNT>
12

> <PUBCHEM_ATOM_DEF_STEREO_COUNT>
0

> <PUBCHEM_ATOM_UDEF_STEREO_COUNT>
0

> <PUBCHEM_BOND_DEF_STEREO_COUNT>
0

> <PUBCHEM_BOND_UDEF_STEREO_COUNT>
0

> <PUBCHEM_ISOTOPIC_ATOM_COUNT>
0

> <PUBCHEM_COMPONENT_COUNT>
1

> <PUBCHEM_CACTVS_TAUTO_COUNT>
-1

> <PUBCHEM_COORDINATE_TYPE>
1
5
255

> <PUBCHEM_BONDANNOTATIONS>
4  7  8
4  8  8
5  6  8
5  8  8
6  7  8

$$$$
