11170
  -OEChem-05122608442D

 80 80  0     0  0  0  0  0  0999 V2000
    7.2961   -1.5000    0.0000 Si  0  0  0  0  0  0  0  0  0  0  0  0
    8.1621    0.0000    0.0000 Si  0  0  0  0  0  0  0  0  0  0  0  0
    5.5640   -1.5000    0.0000 Si  0  0  0  0  0  0  0  0  0  0  0  0
    7.2961    1.5000    0.0000 Si  0  0  0  0  0  0  0  0  0  0  0  0
    3.8320   -1.5000    0.0000 Si  0  0  0  0  0  0  0  0  0  0  0  0
    5.5640    1.5000    0.0000 Si  0  0  0  0  0  0  0  0  0  0  0  0
    2.9659    0.0000    0.0000 Si  0  0  0  0  0  0  0  0  0  0  0  0
    3.8320    1.5000    0.0000 Si  0  0  0  0  0  0  0  0  0  0  0  0
    8.1621   -1.0000    0.0000 O   0  0  0  0  0  0  0  0  0  0  0  0
    6.4300   -1.0000    0.0000 O   0  0  0  0  0  0  0  0  0  0  0  0
    7.2961    0.5000    0.0000 O   0  0  0  0  0  0  0  0  0  0  0  0
    4.6980   -1.0000    0.0000 O   0  0  0  0  0  0  0  0  0  0  0  0
    6.4300    2.0000    0.0000 O   0  0  0  0  0  0  0  0  0  0  0  0
    2.9659   -1.0000    0.0000 O   0  0  0  0  0  0  0  0  0  0  0  0
    4.6980    2.0000    0.0000 O   0  0  0  0  0  0  0  0  0  0  0  0
    3.8320    0.5000    0.0000 O   0  0  0  0  0  0  0  0  0  0  0  0
    8.0032   -2.2071    0.0000 C   0  0  0  0  0  0  0  0  0  0  0  0
    7.0372   -2.4659    0.0000 C   0  0  0  0  0  0  0  0  0  0  0  0
    9.1280   -0.2588    0.0000 C   0  0  0  0  0  0  0  0  0  0  0  0
    8.8692    0.7071    0.0000 C   0  0  0  0  0  0  0  0  0  0  0  0
    4.9905   -2.3192    0.0000 C   0  0  0  0  0  0  0  0  0  0  0  0
    5.8228   -2.4659    0.0000 C   0  0  0  0  0  0  0  0  0  0  0  0
    7.5549    2.4659    0.0000 C   0  0  0  0  0  0  0  0  0  0  0  0
    8.2620    1.7588    0.0000 C   0  0  0  0  0  0  0  0  0  0  0  0
    3.1249   -2.2072    0.0000 C   0  0  0  0  0  0  0  0  0  0  0  0
    4.0908   -2.4659    0.0000 C   0  0  0  0  0  0  0  0  0  0  0  0
    5.3052    0.5341    0.0000 C   0  0  0  0  0  0  0  0  0  0  0  0
    6.2711    0.7929    0.0000 C   0  0  0  0  0  0  0  0  0  0  0  0
    2.0000   -0.2588    0.0000 C   0  0  0  0  0  0  0  0  0  0  0  0
    2.2588    0.7071    0.0000 C   0  0  0  0  0  0  0  0  0  0  0  0
    3.5731    2.4659    0.0000 C   0  0  0  0  0  0  0  0  0  0  0  0
    2.8660    1.7588    0.0000 C   0  0  0  0  0  0  0  0  0  0  0  0
    7.5648   -2.6455    0.0000 H   0  0  0  0  0  0  0  0  0  0  0  0
    8.4416   -2.6455    0.0000 H   0  0  0  0  0  0  0  0  0  0  0  0
    8.4416   -1.7687    0.0000 H   0  0  0  0  0  0  0  0  0  0  0  0
    6.4384   -2.3055    0.0000 H   0  0  0  0  0  0  0  0  0  0  0  0
    6.8768   -3.0648    0.0000 H   0  0  0  0  0  0  0  0  0  0  0  0
    7.6361   -2.6264    0.0000 H   0  0  0  0  0  0  0  0  0  0  0  0
    8.9675   -0.8577    0.0000 H   0  0  0  0  0  0  0  0  0  0  0  0
    9.7269   -0.4193    0.0000 H   0  0  0  0  0  0  0  0  0  0  0  0
    9.2885    0.3401    0.0000 H   0  0  0  0  0  0  0  0  0  0  0  0
    9.3076    0.2687    0.0000 H   0  0  0  0  0  0  0  0  0  0  0  0
    9.3076    1.1455    0.0000 H   0  0  0  0  0  0  0  0  0  0  0  0
    8.4308    1.1455    0.0000 H   0  0  0  0  0  0  0  0  0  0  0  0
    4.4826   -1.9636    0.0000 H   0  0  0  0  0  0  0  0  0  0  0  0
    4.6349   -2.8271    0.0000 H   0  0  0  0  0  0  0  0  0  0  0  0
    5.4984   -2.6748    0.0000 H   0  0  0  0  0  0  0  0  0  0  0  0
    5.2240   -2.6264    0.0000 H   0  0  0  0  0  0  0  0  0  0  0  0
    5.9833   -3.0648    0.0000 H   0  0  0  0  0  0  0  0  0  0  0  0
    6.4217   -2.3055    0.0000 H   0  0  0  0  0  0  0  0  0  0  0  0
    8.1538    2.3055    0.0000 H   0  0  0  0  0  0  0  0  0  0  0  0
    7.7153    3.0648    0.0000 H   0  0  0  0  0  0  0  0  0  0  0  0
    6.9560    2.6264    0.0000 H   0  0  0  0  0  0  0  0  0  0  0  0
    8.4225    1.1600    0.0000 H   0  0  0  0  0  0  0  0  0  0  0  0
    8.8609    1.9193    0.0000 H   0  0  0  0  0  0  0  0  0  0  0  0
    8.1015    2.3577    0.0000 H   0  0  0  0  0  0  0  0  0  0  0  0
    2.6865   -1.7688    0.0000 H   0  0  0  0  0  0  0  0  0  0  0  0
    2.6865   -2.6456    0.0000 H   0  0  0  0  0  0  0  0  0  0  0  0
    3.5633   -2.6455    0.0000 H   0  0  0  0  0  0  0  0  0  0  0  0
    3.4919   -2.6264    0.0000 H   0  0  0  0  0  0  0  0  0  0  0  0
    4.2512   -3.0648    0.0000 H   0  0  0  0  0  0  0  0  0  0  0  0
    4.6896   -2.3055    0.0000 H   0  0  0  0  0  0  0  0  0  0  0  0
    4.7063    0.6945    0.0000 H   0  0  0  0  0  0  0  0  0  0  0  0
    5.1447   -0.0648    0.0000 H   0  0  0  0  0  0  0  0  0  0  0  0
    5.9041    0.3736    0.0000 H   0  0  0  0  0  0  0  0  0  0  0  0
    5.8327    0.3545    0.0000 H   0  0  0  0  0  0  0  0  0  0  0  0
    6.7095    0.3545    0.0000 H   0  0  0  0  0  0  0  0  0  0  0  0
    6.7095    1.2313    0.0000 H   0  0  0  0  0  0  0  0  0  0  0  0
    1.8395    0.3401    0.0000 H   0  0  0  0  0  0  0  0  0  0  0  0
    1.4011   -0.4193    0.0000 H   0  0  0  0  0  0  0  0  0  0  0  0
    2.1605   -0.8577    0.0000 H   0  0  0  0  0  0  0  0  0  0  0  0
    2.6972    1.1455    0.0000 H   0  0  0  0  0  0  0  0  0  0  0  0
    1.8204    1.1455    0.0000 H   0  0  0  0  0  0  0  0  0  0  0  0
    1.8204    0.2687    0.0000 H   0  0  0  0  0  0  0  0  0  0  0  0
    4.1720    2.6264    0.0000 H   0  0  0  0  0  0  0  0  0  0  0  0
    3.4127    3.0648    0.0000 H   0  0  0  0  0  0  0  0  0  0  0  0
    2.9743    2.3055    0.0000 H   0  0  0  0  0  0  0  0  0  0  0  0
    3.0265    2.3577    0.0000 H   0  0  0  0  0  0  0  0  0  0  0  0
    2.2672    1.9193    0.0000 H   0  0  0  0  0  0  0  0  0  0  0  0
    2.7056    1.1600    0.0000 H   0  0  0  0  0  0  0  0  0  0  0  0
  1  9  1  0  0  0  0
  1 10  1  0  0  0  0
  1 17  1  0  0  0  0
  1 18  1  0  0  0  0
  2  9  1  0  0  0  0
  2 11  1  0  0  0  0
  2 19  1  0  0  0  0
  2 20  1  0  0  0  0
  3 10  1  0  0  0  0
  3 12  1  0  0  0  0
  3 21  1  0  0  0  0
  3 22  1  0  0  0  0
  4 11  1  0  0  0  0
  4 13  1  0  0  0  0
  4 23  1  0  0  0  0
  4 24  1  0  0  0  0
  5 12  1  0  0  0  0
  5 14  1  0  0  0  0
  5 25  1  0  0  0  0
  5 26  1  0  0  0  0
  6 13  1  0  0  0  0
  6 15  1  0  0  0  0
  6 27  1  0  0  0  0
  6 28  1  0  0  0  0
  7 14  1  0  0  0  0
  7 16  1  0  0  0  0
  7 29  1  0  0  0  0
  7 30  1  0  0  0  0
  8 15  1  0  0  0  0
  8 16  1  0  0  0  0
  8 31  1  0  0  0  0
  8 32  1  0  0  0  0
 17 33  1  0  0  0  0
 17 34  1  0  0  0  0
 17 35  1  0  0  0  0
 18 36  1  0  0  0  0
 18 37  1  0  0  0  0
 18 38  1  0  0  0  0
 19 39  1  0  0  0  0
 19 40  1  0  0  0  0
 19 41  1  0  0  0  0
 20 42  1  0  0  0  0
 20 43  1  0  0  0  0
 20 44  1  0  0  0  0
 21 45  1  0  0  0  0
 21 46  1  0  0  0  0
 21 47  1  0  0  0  0
 22 48  1  0  0  0  0
 22 49  1  0  0  0  0
 22 50  1  0  0  0  0
 23 51  1  0  0  0  0
 23 52  1  0  0  0  0
 23 53  1  0  0  0  0
 24 54  1  0  0  0  0
 24 55  1  0  0  0  0
 24 56  1  0  0  0  0
 25 57  1  0  0  0  0
 25 58  1  0  0  0  0
 25 59  1  0  0  0  0
 26 60  1  0  0  0  0
 26 61  1  0  0  0  0
 26 62  1  0  0  0  0
 27 63  1  0  0  0  0
 27 64  1  0  0  0  0
 27 65  1  0  0  0  0
 28 66  1  0  0  0  0
 28 67  1  0  0  0  0
 28 68  1  0  0  0  0
 29 69  1  0  0  0  0
 29 70  1  0  0  0  0
 29 71  1  0  0  0  0
 30 72  1  0  0  0  0
 30 73  1  0  0  0  0
 30 74  1  0  0  0  0
 31 75  1  0  0  0  0
 31 76  1  0  0  0  0
 31 77  1  0  0  0  0
 32 78  1  0  0  0  0
 32 79  1  0  0  0  0
 32 80  1  0  0  0  0
M  END
> <PUBCHEM_COMPOUND_CID>
11170

> <PUBCHEM_COMPOUND_CANONICALIZED>
1

> <PUBCHEM_CACTVS_COMPLEXITY>
450

> <PUBCHEM_CACTVS_HBOND_ACCEPTOR>
8

> <PUBCHEM_CACTVS_HBOND_DONOR>
0

> <PUBCHEM_CACTVS_ROTATABLE_BOND>
0

> <PUBCHEM_CACTVS_SUBSKEYS>
AAADcfB4PAwAAAAAAAAAAAAAAAAAAAAAAAAAAAAAAAAAAAAAAAAAEBAAAEAAAAAAAABCAAAAAAEAAAAAAAAAAAAAAAAAAAAAAAAAAAAAAAAAAAAAAAAAAAAAAAAAAAAAAAAAAAAAAAAAAAAAAAAAAAAAAA==

> <PUBCHEM_IUPAC_OPENEYE_NAME>
2,2,4,4,6,6,8,8,10,10,12,12,14,14,16,16-hexadecamethyl-1,3,5,7,9,11,13,15-octaoxa-2,4,6,8,10,12,14,16-octasilacyclohexadecane

> <PUBCHEM_IUPAC_CAS_NAME>
2,2,4,4,6,6,8,8,10,10,12,12,14,14,16,16-hexadecamethyl-1,3,5,7,9,11,13,15-octaoxa-2,4,6,8,10,12,14,16-octasilacyclohexadecane

> <PUBCHEM_IUPAC_NAME_MARKUP>
2,2,4,4,6,6,8,8,10,10,12,12,14,14,16,16-hexadecamethyl-1,3,5,7,9,11,13,15-octaoxa-2,4,6,8,10,12,14,16-octasilacyclohexadecane

> <PUBCHEM_IUPAC_NAME>
2,2,4,4,6,6,8,8,10,10,12,12,14,14,16,16-hexadecamethyl-1,3,5,7,9,11,13,15-octaoxa-2,4,6,8,10,12,14,16-octasilacyclohexadecane

> <PUBCHEM_IUPAC_SYSTEMATIC_NAME>
2,2,4,4,6,6,8,8,10,10,12,12,14,14,16,16-hexadecamethyl-1,3,5,7,9,11,13,15-octaoxa-2,4,6,8,10,12,14,16-octasilacyclohexadecane

> <PUBCHEM_IUPAC_TRADITIONAL_NAME>
2,2,4,4,6,6,8,8,10,10,12,12,14,14,16,16-hexadecamethyl-1,3,5,7,9,11,13,15-octaoxa-2,4,6,8,10,12,14,16-octasilacyclohexadecane

> <PUBCHEM_IUPAC_INCHI>
InChI=1S/C16H48O8Si8/c1-25(2)17-26(3,4)19-28(7,8)21-30(11,12)23-32(15,16)24-31(13,14)22-29(9,10)20-27(5,6)18-25/h1-16H3

> <PUBCHEM_IUPAC_INCHIKEY>
XKJMJYZFAWYREL-UHFFFAOYSA-N

> <PUBCHEM_EXACT_MASS>
592.15033076

> <PUBCHEM_MOLECULAR_FORMULA>
C16H48O8Si8

> <PUBCHEM_MOLECULAR_WEIGHT>
593.2

> <PUBCHEM_SMILES>
C[Si]1(O[Si](O[Si](O[Si](O[Si](O[Si](O[Si](O[Si](O1)(C)C)(C)C)(C)C)(C)C)(C)C)(C)C)(C)C)C

> <PUBCHEM_CONNECTIVITY_SMILES>
C[Si]1(O[Si](O[Si](O[Si](O[Si](O[Si](O[Si](O[Si](O1)(C)C)(C)C)(C)C)(C)C)(C)C)(C)C)(C)C)C

> <PUBCHEM_CACTVS_TPSA>
73.8

> <PUBCHEM_MONOISOTOPIC_WEIGHT>
592.15033076

> <PUBCHEM_TOTAL_CHARGE>
0

> <PUBCHEM_HEAVY_ATOM_COUNT>
32

> <PUBCHEM_ATOM_DEF_STEREO_COUNT>
0

> <PUBCHEM_ATOM_UDEF_STEREO_COUNT>
0

> <PUBCHEM_BOND_DEF_STEREO_COUNT>
0

> <PUBCHEM_BOND_UDEF_STEREO_COUNT>
0

> <PUBCHEM_ISOTOPIC_ATOM_COUNT>
0

> <PUBCHEM_COMPONENT_COUNT>
1

> <PUBCHEM_CACTVS_TAUTO_COUNT>
-1

> <PUBCHEM_COORDINATE_TYPE>
1
5
255

$$$$
