11183038
  -OEChem-05122608212D

 30 34  0     1  0  0  0  0  0999 V2000
    5.0802   -0.4969    0.0000 C   0  0  0  0  0  0  0  0  0  0  0  0
    4.7382    0.4428    0.0000 C   0  0  0  0  0  0  0  0  0  0  0  0
    4.1341   -0.8456    0.0000 C   0  0  0  0  0  0  0  0  0  0  0  0
    3.7893    0.1019    0.0000 C   0  0  0  0  0  0  0  0  0  0  0  0
    6.4529    0.0952    0.0000 C   0  0  2  0  0  0  0  0  0  0  0  0
    6.7117    1.0611    0.0000 C   0  0  1  0  0  0  0  0  0  0  0  0
    3.3427   -1.4606    0.0000 C   0  0  2  0  0  0  0  0  0  0  0  0
    2.7877    0.0643    0.0000 C   0  0  1  0  0  0  0  0  0  0  0  0
    5.9751    2.0437    0.0000 C   0  0  0  0  0  0  0  0  0  0  0  0
    2.5122   -0.8994    0.0000 C   0  0  0  0  0  0  0  0  0  0  0  0
    7.8518   -0.4137    0.0000 C   0  0  0  0  0  0  0  0  0  0  0  0
    8.1107    0.5523    0.0000 C   0  0  0  0  0  0  0  0  0  0  0  0
    2.3423   -1.4938    0.0000 C   0  0  0  0  0  0  0  0  0  0  0  0
    2.0000   -0.5533    0.0000 C   0  0  0  0  0  0  0  0  0  0  0  0
    5.3103   -1.0726    0.0000 H   0  0  0  0  0  0  0  0  0  0  0  0
    4.5406    1.0305    0.0000 H   0  0  0  0  0  0  0  0  0  0  0  0
    4.4351   -1.3876    0.0000 H   0  0  0  0  0  0  0  0  0  0  0  0
    3.6714    0.7106    0.0000 H   0  0  0  0  0  0  0  0  0  0  0  0
    6.2329   -0.7259    0.0000 H   0  0  0  0  0  0  0  0  0  0  0  0
    6.9317    1.8821    0.0000 H   0  0  0  0  0  0  0  0  0  0  0  0
    3.6317   -2.2600    0.0000 H   0  0  0  0  0  0  0  0  0  0  0  0
    2.4952    0.8624    0.0000 H   0  0  0  0  0  0  0  0  0  0  0  0
    6.2929    2.5761    0.0000 H   0  0  0  0  0  0  0  0  0  0  0  0
    5.3620    2.1357    0.0000 H   0  0  0  0  0  0  0  0  0  0  0  0
    1.9373   -0.6673    0.0000 H   0  0  0  0  0  0  0  0  0  0  0  0
    2.2210   -1.4468    0.0000 H   0  0  0  0  0  0  0  0  0  0  0  0
    8.1382   -0.9636    0.0000 H   0  0  0  0  0  0  0  0  0  0  0  0
    8.6606    0.8386    0.0000 H   0  0  0  0  0  0  0  0  0  0  0  0
    1.9952   -2.0075    0.0000 H   0  0  0  0  0  0  0  0  0  0  0  0
    1.4039   -0.3829    0.0000 H   0  0  0  0  0  0  0  0  0  0  0  0
  1  2  1  0  0  0  0
  1  3  1  0  0  0  0
  1  5  1  0  0  0  0
  1 15  1  0  0  0  0
  2  4  1  0  0  0  0
  2  6  1  0  0  0  0
  2 16  1  0  0  0  0
  3  4  1  0  0  0  0
  3  7  1  0  0  0  0
  3 17  1  0  0  0  0
  4  8  1  0  0  0  0
  4 18  1  0  0  0  0
  5  9  1  0  0  0  0
  5 11  1  0  0  0  0
  5 19  1  1  0  0  0
  6  9  1  0  0  0  0
  6 12  1  0  0  0  0
  6 20  1  6  0  0  0
  7 10  1  0  0  0  0
  7 13  1  0  0  0  0
  7 21  1  6  0  0  0
  8 10  1  0  0  0  0
  8 14  1  0  0  0  0
  8 22  1  6  0  0  0
  9 23  1  0  0  0  0
  9 24  1  0  0  0  0
 10 25  1  0  0  0  0
 10 26  1  0  0  0  0
 11 12  2  0  0  0  0
 11 27  1  0  0  0  0
 12 28  1  0  0  0  0
 13 14  2  0  0  0  0
 13 29  1  0  0  0  0
 14 30  1  0  0  0  0
M  END
> <PUBCHEM_COMPOUND_CID>
11183038

> <PUBCHEM_COMPOUND_CANONICALIZED>
1

> <PUBCHEM_CACTVS_COMPLEXITY>
296

> <PUBCHEM_CACTVS_HBOND_ACCEPTOR>
0

> <PUBCHEM_CACTVS_HBOND_DONOR>
0

> <PUBCHEM_CACTVS_ROTATABLE_BOND>
0

> <PUBCHEM_CACTVS_SUBSKEYS>
AAADceBwAAAAAAAAAAAAAAAAAABgAYMECAAgQAAABgwAAAAAAAAAGAAAAAAADQCAAAAAAAAAAACAACBCAAAAAAAgAAAICAAAAAgAAAIAAQAAAAAAgAAIAAMAgMAOgAAAAAAAAAAAAAAAAAAAAQAACAAAAA==

> <PUBCHEM_IUPAC_OPENEYE_NAME>
(1R,4R,7S,10S)-pentacyclo[8.2.1.14,7.02,9.03,8]tetradeca-5,11-diene

> <PUBCHEM_IUPAC_CAS_NAME>
(1R,4R,7S,10S)-pentacyclo[8.2.1.14,7.02,9.03,8]tetradeca-5,11-diene

> <PUBCHEM_IUPAC_NAME_MARKUP>
(1<I>R</I>,4<I>R</I>,7<I>S</I>,10<I>S</I>)-pentacyclo[8.2.1.1<SUP>4,7</SUP>.0<SUP>2,9</SUP>.0<SUP>3,8</SUP>]tetradeca-5,11-diene

> <PUBCHEM_IUPAC_NAME>
(1R,4R,7S,10S)-pentacyclo[8.2.1.14,7.02,9.03,8]tetradeca-5,11-diene

> <PUBCHEM_IUPAC_SYSTEMATIC_NAME>
(1R,4R,7S,10S)-pentacyclo[8.2.1.14,7.02,9.03,8]tetradeca-5,11-diene

> <PUBCHEM_IUPAC_TRADITIONAL_NAME>
(1R,4R,7S,10S)-pentacyclo[8.2.1.14,7.02,9.03,8]tetradeca-5,11-diene

> <PUBCHEM_IUPAC_INCHI>
InChI=1S/C14H16/c1-2-8-5-7(1)11-12(8)14-10-4-3-9(6-10)13(11)14/h1-4,7-14H,5-6H2/t7-,8+,9-,10+,11?,12?,13?,14?

> <PUBCHEM_IUPAC_INCHIKEY>
KPBWFFSGJYAHSX-OEJWJKRZSA-N

> <PUBCHEM_XLOGP3_AA>
3.1

> <PUBCHEM_EXACT_MASS>
184.125200510

> <PUBCHEM_MOLECULAR_FORMULA>
C14H16

> <PUBCHEM_MOLECULAR_WEIGHT>
184.28

> <PUBCHEM_SMILES>
C1[C@@H]2C=C[C@H]1C3C2C4C3[C@H]5C[C@@H]4C=C5

> <PUBCHEM_CONNECTIVITY_SMILES>
C1C2C=CC1C3C2C4C3C5CC4C=C5

> <PUBCHEM_CACTVS_TPSA>
0

> <PUBCHEM_MONOISOTOPIC_WEIGHT>
184.125200510

> <PUBCHEM_TOTAL_CHARGE>
0

> <PUBCHEM_HEAVY_ATOM_COUNT>
14

> <PUBCHEM_ATOM_DEF_STEREO_COUNT>
4

> <PUBCHEM_ATOM_UDEF_STEREO_COUNT>
0

> <PUBCHEM_BOND_DEF_STEREO_COUNT>
0

> <PUBCHEM_BOND_UDEF_STEREO_COUNT>
0

> <PUBCHEM_ISOTOPIC_ATOM_COUNT>
0

> <PUBCHEM_COMPONENT_COUNT>
1

> <PUBCHEM_CACTVS_TAUTO_COUNT>
-1

> <PUBCHEM_COORDINATE_TYPE>
1
5
255

> <PUBCHEM_BONDANNOTATIONS>
5  19  5
6  20  6
7  21  6
8  22  6

$$$$
