111913
  -OEChem-05122608302D

 42 41  0     0  0  0  0  0  0999 V2000
    8.0622    1.1830    0.0000 S   0  0  0  0  0  0  0  0  0  0  0  0
    5.8301    1.0490    0.0000 F   0  0  0  0  0  0  0  0  0  0  0  0
    6.8301   -0.6830    0.0000 F   0  0  0  0  0  0  0  0  0  0  0  0
    4.9641    0.5490    0.0000 F   0  0  0  0  0  0  0  0  0  0  0  0
    5.9641   -1.1830    0.0000 F   0  0  0  0  0  0  0  0  0  0  0  0
    7.6962   -0.1830    0.0000 F   0  0  0  0  0  0  0  0  0  0  0  0
    6.6962    1.5490    0.0000 F   0  0  0  0  0  0  0  0  0  0  0  0
    4.0981    0.0490    0.0000 F   0  0  0  0  0  0  0  0  0  0  0  0
    5.0981   -1.6830    0.0000 F   0  0  0  0  0  0  0  0  0  0  0  0
    3.2321   -0.4510    0.0000 F   0  0  0  0  0  0  0  0  0  0  0  0
    4.2321   -2.1830    0.0000 F   0  0  0  0  0  0  0  0  0  0  0  0
    2.0000   -2.3170    0.0000 F   0  0  0  0  0  0  0  0  0  0  0  0
    2.3660   -0.9510    0.0000 F   0  0  0  0  0  0  0  0  0  0  0  0
    3.3660   -2.6830    0.0000 F   0  0  0  0  0  0  0  0  0  0  0  0
    8.5622    0.3170    0.0000 O   0  0  0  0  0  0  0  0  0  0  0  0
    7.5622    2.0490    0.0000 O   0  0  0  0  0  0  0  0  0  0  0  0
    8.9282    1.6830    0.0000 N   0  0  0  0  0  0  0  0  0  0  0  0
   12.3923    1.6830    0.0000 N   0  0  0  0  0  0  0  0  0  0  0  0
    6.3301    0.1830    0.0000 C   0  0  0  0  0  0  0  0  0  0  0  0
    5.4641   -0.3170    0.0000 C   0  0  0  0  0  0  0  0  0  0  0  0
    7.1962    0.6830    0.0000 C   0  0  0  0  0  0  0  0  0  0  0  0
    4.5981   -0.8170    0.0000 C   0  0  0  0  0  0  0  0  0  0  0  0
    3.7321   -1.3170    0.0000 C   0  0  0  0  0  0  0  0  0  0  0  0
    9.7942    1.1830    0.0000 C   0  0  0  0  0  0  0  0  0  0  0  0
   10.6603    1.6830    0.0000 C   0  0  0  0  0  0  0  0  0  0  0  0
   11.5263    1.1830    0.0000 C   0  0  0  0  0  0  0  0  0  0  0  0
    2.8660   -1.8170    0.0000 C   0  0  0  0  0  0  0  0  0  0  0  0
   13.2583    1.1830    0.0000 C   0  0  0  0  0  0  0  0  0  0  0  0
   12.3923    2.6830    0.0000 C   0  0  0  0  0  0  0  0  0  0  0  0
    8.9282    2.3030    0.0000 H   0  0  0  0  0  0  0  0  0  0  0  0
    9.3957    0.7081    0.0000 H   0  0  0  0  0  0  0  0  0  0  0  0
   10.1928    0.7081    0.0000 H   0  0  0  0  0  0  0  0  0  0  0  0
   11.0588    2.1580    0.0000 H   0  0  0  0  0  0  0  0  0  0  0  0
   10.2617    2.1580    0.0000 H   0  0  0  0  0  0  0  0  0  0  0  0
   11.1278    0.7081    0.0000 H   0  0  0  0  0  0  0  0  0  0  0  0
   11.9248    0.7081    0.0000 H   0  0  0  0  0  0  0  0  0  0  0  0
   12.9483    0.6461    0.0000 H   0  0  0  0  0  0  0  0  0  0  0  0
   13.7953    0.8730    0.0000 H   0  0  0  0  0  0  0  0  0  0  0  0
   13.5683    1.7200    0.0000 H   0  0  0  0  0  0  0  0  0  0  0  0
   13.0123    2.6830    0.0000 H   0  0  0  0  0  0  0  0  0  0  0  0
   12.3923    3.3030    0.0000 H   0  0  0  0  0  0  0  0  0  0  0  0
   11.7723    2.6830    0.0000 H   0  0  0  0  0  0  0  0  0  0  0  0
  1 15  2  0  0  0  0
  1 16  2  0  0  0  0
  1 17  1  0  0  0  0
  1 21  1  0  0  0  0
  2 19  1  0  0  0  0
  3 19  1  0  0  0  0
  4 20  1  0  0  0  0
  5 20  1  0  0  0  0
  6 21  1  0  0  0  0
  7 21  1  0  0  0  0
  8 22  1  0  0  0  0
  9 22  1  0  0  0  0
 10 23  1  0  0  0  0
 11 23  1  0  0  0  0
 12 27  1  0  0  0  0
 13 27  1  0  0  0  0
 14 27  1  0  0  0  0
 17 24  1  0  0  0  0
 17 30  1  0  0  0  0
 18 26  1  0  0  0  0
 18 28  1  0  0  0  0
 18 29  1  0  0  0  0
 19 20  1  0  0  0  0
 19 21  1  0  0  0  0
 20 22  1  0  0  0  0
 22 23  1  0  0  0  0
 23 27  1  0  0  0  0
 24 25  1  0  0  0  0
 24 31  1  0  0  0  0
 24 32  1  0  0  0  0
 25 26  1  0  0  0  0
 25 33  1  0  0  0  0
 25 34  1  0  0  0  0
 26 35  1  0  0  0  0
 26 36  1  0  0  0  0
 28 37  1  0  0  0  0
 28 38  1  0  0  0  0
 28 39  1  0  0  0  0
 29 40  1  0  0  0  0
 29 41  1  0  0  0  0
 29 42  1  0  0  0  0
M  END
> <PUBCHEM_COMPOUND_CID>
111913

> <PUBCHEM_COMPOUND_CANONICALIZED>
1

> <PUBCHEM_CACTVS_COMPLEXITY>
667

> <PUBCHEM_CACTVS_HBOND_ACCEPTOR>
17

> <PUBCHEM_CACTVS_HBOND_DONOR>
1

> <PUBCHEM_CACTVS_ROTATABLE_BOND>
10

> <PUBCHEM_CACTVS_SUBSKEYS>
AAADccBzMcBAAAAAAAAAAAAAAAAAAAAAAAAAAAAAAAAAAAAAAAAAHQQQQAAACADBQBQCAANAAAIAAAAAAHBAAAAAAAAAAIAIAAAAAAIAQAAEAAAAEAAAAAEAAAAAAAAAAAAAAAAAAAAAAAAAAAAAAAAAAA==

> <PUBCHEM_IUPAC_OPENEYE_NAME>
N-[3-(dimethylamino)propyl]-1,1,2,2,3,3,4,4,5,5,6,6,6-tridecafluoro-hexane-1-sulfonamide

> <PUBCHEM_IUPAC_CAS_NAME>
N-[3-(dimethylamino)propyl]-1,1,2,2,3,3,4,4,5,5,6,6,6-tridecafluoro-1-hexanesulfonamide

> <PUBCHEM_IUPAC_NAME_MARKUP>
<I>N</I>-[3-(dimethylamino)propyl]-1,1,2,2,3,3,4,4,5,5,6,6,6-tridecafluorohexane-1-sulfonamide

> <PUBCHEM_IUPAC_NAME>
N-[3-(dimethylamino)propyl]-1,1,2,2,3,3,4,4,5,5,6,6,6-tridecafluorohexane-1-sulfonamide

> <PUBCHEM_IUPAC_SYSTEMATIC_NAME>
N-[3-(dimethylamino)propyl]-1,1,2,2,3,3,4,4,5,5,6,6,6-tridecakis(fluoranyl)hexane-1-sulfonamide

> <PUBCHEM_IUPAC_TRADITIONAL_NAME>
N-[3-(dimethylamino)propyl]-1,1,2,2,3,3,4,4,5,5,6,6,6-tridecafluoro-hexane-1-sulfonamide

> <PUBCHEM_IUPAC_INCHI>
InChI=1S/C11H13F13N2O2S/c1-26(2)5-3-4-25-29(27,28)11(23,24)9(18,19)7(14,15)6(12,13)8(16,17)10(20,21)22/h25H,3-5H2,1-2H3

> <PUBCHEM_IUPAC_INCHIKEY>
INDOGKYZYLAGEM-UHFFFAOYSA-N

> <PUBCHEM_XLOGP3_AA>
4.3

> <PUBCHEM_EXACT_MASS>
484.0490149

> <PUBCHEM_MOLECULAR_FORMULA>
C11H13F13N2O2S

> <PUBCHEM_MOLECULAR_WEIGHT>
484.28

> <PUBCHEM_SMILES>
CN(C)CCCNS(=O)(=O)C(C(C(C(C(C(F)(F)F)(F)F)(F)F)(F)F)(F)F)(F)F

> <PUBCHEM_CONNECTIVITY_SMILES>
CN(C)CCCNS(=O)(=O)C(C(C(C(C(C(F)(F)F)(F)F)(F)F)(F)F)(F)F)(F)F

> <PUBCHEM_CACTVS_TPSA>
57.8

> <PUBCHEM_MONOISOTOPIC_WEIGHT>
484.0490149

> <PUBCHEM_TOTAL_CHARGE>
0

> <PUBCHEM_HEAVY_ATOM_COUNT>
29

> <PUBCHEM_ATOM_DEF_STEREO_COUNT>
0

> <PUBCHEM_ATOM_UDEF_STEREO_COUNT>
0

> <PUBCHEM_BOND_DEF_STEREO_COUNT>
0

> <PUBCHEM_BOND_UDEF_STEREO_COUNT>
0

> <PUBCHEM_ISOTOPIC_ATOM_COUNT>
0

> <PUBCHEM_COMPONENT_COUNT>
1

> <PUBCHEM_CACTVS_TAUTO_COUNT>
-1

> <PUBCHEM_COORDINATE_TYPE>
1
5
255

$$$$
