11197712
  -OEChem-05122608152D

 47 48  0     0  0  0  0  0  0999 V2000
    5.4641   -0.2500    0.0000 Si  0  0  0  0  0  0  0  0  0  0  0  0
    4.5981    0.2500    0.0000 O   0  0  0  0  0  0  0  0  0  0  0  0
    2.8660    0.2500    0.0000 N   0  0  0  0  0  0  0  0  0  0  0  0
    6.3301   -0.7500    0.0000 C   0  0  0  0  0  0  0  0  0  0  0  0
    7.1962   -1.2500    0.0000 C   0  0  0  0  0  0  0  0  0  0  0  0
    6.8301    0.1160    0.0000 C   0  0  0  0  0  0  0  0  0  0  0  0
    5.8301   -1.6160    0.0000 C   0  0  0  0  0  0  0  0  0  0  0  0
    5.9641    0.6160    0.0000 C   0  0  0  0  0  0  0  0  0  0  0  0
    4.9641   -1.1160    0.0000 C   0  0  0  0  0  0  0  0  0  0  0  0
    3.7321   -0.2500    0.0000 C   0  0  0  0  0  0  0  0  0  0  0  0
    3.7321   -1.2500    0.0000 C   0  0  0  0  0  0  0  0  0  0  0  0
    2.8660   -1.7500    0.0000 C   0  0  0  0  0  0  0  0  0  0  0  0
    4.5981   -1.7500    0.0000 C   0  0  0  0  0  0  0  0  0  0  0  0
    2.8660    1.2500    0.0000 C   0  0  0  0  0  0  0  0  0  0  0  0
    2.8660   -2.7500    0.0000 C   0  0  0  0  0  0  0  0  0  0  0  0
    4.5981   -2.7500    0.0000 C   0  0  0  0  0  0  0  0  0  0  0  0
    3.7321   -3.2500    0.0000 C   0  0  0  0  0  0  0  0  0  0  0  0
    3.7321    1.7500    0.0000 C   0  0  0  0  0  0  0  0  0  0  0  0
    2.0000    1.7500    0.0000 C   0  0  0  0  0  0  0  0  0  0  0  0
    3.7321    2.7500    0.0000 C   0  0  0  0  0  0  0  0  0  0  0  0
    2.0000    2.7500    0.0000 C   0  0  0  0  0  0  0  0  0  0  0  0
    2.8660    3.2500    0.0000 C   0  0  0  0  0  0  0  0  0  0  0  0
    6.8862   -1.7869    0.0000 H   0  0  0  0  0  0  0  0  0  0  0  0
    7.7331   -1.5600    0.0000 H   0  0  0  0  0  0  0  0  0  0  0  0
    7.5062   -0.7131    0.0000 H   0  0  0  0  0  0  0  0  0  0  0  0
    7.3671   -0.1940    0.0000 H   0  0  0  0  0  0  0  0  0  0  0  0
    7.1401    0.6530    0.0000 H   0  0  0  0  0  0  0  0  0  0  0  0
    6.2932    0.4260    0.0000 H   0  0  0  0  0  0  0  0  0  0  0  0
    5.2932   -1.3060    0.0000 H   0  0  0  0  0  0  0  0  0  0  0  0
    5.5201   -2.1530    0.0000 H   0  0  0  0  0  0  0  0  0  0  0  0
    6.3671   -1.9260    0.0000 H   0  0  0  0  0  0  0  0  0  0  0  0
    6.5010    0.3060    0.0000 H   0  0  0  0  0  0  0  0  0  0  0  0
    6.2741    1.1530    0.0000 H   0  0  0  0  0  0  0  0  0  0  0  0
    5.4272    0.9260    0.0000 H   0  0  0  0  0  0  0  0  0  0  0  0
    4.4272   -0.8060    0.0000 H   0  0  0  0  0  0  0  0  0  0  0  0
    4.6541   -1.6530    0.0000 H   0  0  0  0  0  0  0  0  0  0  0  0
    5.5010   -1.4260    0.0000 H   0  0  0  0  0  0  0  0  0  0  0  0
    2.3291   -1.4400    0.0000 H   0  0  0  0  0  0  0  0  0  0  0  0
    5.1350   -1.4400    0.0000 H   0  0  0  0  0  0  0  0  0  0  0  0
    2.3291   -3.0600    0.0000 H   0  0  0  0  0  0  0  0  0  0  0  0
    5.1350   -3.0600    0.0000 H   0  0  0  0  0  0  0  0  0  0  0  0
    3.7321   -3.8700    0.0000 H   0  0  0  0  0  0  0  0  0  0  0  0
    4.2690    1.4400    0.0000 H   0  0  0  0  0  0  0  0  0  0  0  0
    1.4631    1.4400    0.0000 H   0  0  0  0  0  0  0  0  0  0  0  0
    4.2690    3.0600    0.0000 H   0  0  0  0  0  0  0  0  0  0  0  0
    1.4631    3.0600    0.0000 H   0  0  0  0  0  0  0  0  0  0  0  0
    2.8660    3.8700    0.0000 H   0  0  0  0  0  0  0  0  0  0  0  0
  1  2  1  0  0  0  0
  1  4  1  0  0  0  0
  1  8  1  0  0  0  0
  1  9  1  0  0  0  0
  2 10  1  0  0  0  0
  3 10  2  0  0  0  0
  3 14  1  0  0  0  0
  4  5  1  0  0  0  0
  4  6  1  0  0  0  0
  4  7  1  0  0  0  0
  5 23  1  0  0  0  0
  5 24  1  0  0  0  0
  5 25  1  0  0  0  0
  6 26  1  0  0  0  0
  6 27  1  0  0  0  0
  6 28  1  0  0  0  0
  7 29  1  0  0  0  0
  7 30  1  0  0  0  0
  7 31  1  0  0  0  0
  8 32  1  0  0  0  0
  8 33  1  0  0  0  0
  8 34  1  0  0  0  0
  9 35  1  0  0  0  0
  9 36  1  0  0  0  0
  9 37  1  0  0  0  0
 10 11  1  0  0  0  0
 11 12  2  0  0  0  0
 11 13  1  0  0  0  0
 12 15  1  0  0  0  0
 12 38  1  0  0  0  0
 13 16  2  0  0  0  0
 13 39  1  0  0  0  0
 14 18  2  0  0  0  0
 14 19  1  0  0  0  0
 15 17  2  0  0  0  0
 15 40  1  0  0  0  0
 16 17  1  0  0  0  0
 16 41  1  0  0  0  0
 17 42  1  0  0  0  0
 18 20  1  0  0  0  0
 18 43  1  0  0  0  0
 19 21  2  0  0  0  0
 19 44  1  0  0  0  0
 20 22  2  0  0  0  0
 20 45  1  0  0  0  0
 21 22  1  0  0  0  0
 21 46  1  0  0  0  0
 22 47  1  0  0  0  0
M  END
> <PUBCHEM_COMPOUND_CID>
11197712

> <PUBCHEM_COMPOUND_CANONICALIZED>
1

> <PUBCHEM_CACTVS_COMPLEXITY>
371

> <PUBCHEM_CACTVS_HBOND_ACCEPTOR>
2

> <PUBCHEM_CACTVS_HBOND_DONOR>
0

> <PUBCHEM_CACTVS_ROTATABLE_BOND>
5

> <PUBCHEM_CACTVS_SUBSKEYS>
AAADceB6IAgAAAAAAAAAAAAAAAAAAAAAAAAwYAAAAAAAAAABQAAAHhAAAEAADAiBuABywIIAAAGgAiRiRACCAAAgAgAIiAAgbJgIJqKAkZGAMABkwAEIyAeQwCAOAAAAAAAAAAAAAAAAAAAAAAAAAAAAAA==

> <PUBCHEM_IUPAC_OPENEYE_NAME>
[tert-butyl(dimethyl)silyl] N-phenylbenzenecarboximidate

> <PUBCHEM_IUPAC_CAS_NAME>
N-phenylbenzenecarboximidic acid [tert-butyl(dimethyl)silyl] ester

> <PUBCHEM_IUPAC_NAME_MARKUP>
[<I>tert</I>-butyl(dimethyl)silyl] <I>N</I>-phenylbenzenecarboximidate

> <PUBCHEM_IUPAC_NAME>
[tert-butyl(dimethyl)silyl] N-phenylbenzenecarboximidate

> <PUBCHEM_IUPAC_SYSTEMATIC_NAME>
[tert-butyl(dimethyl)silyl] N-phenylbenzenecarboximidate

> <PUBCHEM_IUPAC_TRADITIONAL_NAME>
N-phenylbenzenecarboximidic acid [tert-butyl(dimethyl)silyl] ester

> <PUBCHEM_IUPAC_INCHI>
InChI=1S/C19H25NOSi/c1-19(2,3)22(4,5)21-18(16-12-8-6-9-13-16)20-17-14-10-7-11-15-17/h6-15H,1-5H3

> <PUBCHEM_IUPAC_INCHIKEY>
CQKWSHDUCPVOAI-UHFFFAOYSA-N

> <PUBCHEM_EXACT_MASS>
311.170540955

> <PUBCHEM_MOLECULAR_FORMULA>
C19H25NOSi

> <PUBCHEM_MOLECULAR_WEIGHT>
311.5

> <PUBCHEM_SMILES>
CC(C)(C)[Si](C)(C)OC(=NC1=CC=CC=C1)C2=CC=CC=C2

> <PUBCHEM_CONNECTIVITY_SMILES>
CC(C)(C)[Si](C)(C)OC(=NC1=CC=CC=C1)C2=CC=CC=C2

> <PUBCHEM_CACTVS_TPSA>
21.6

> <PUBCHEM_MONOISOTOPIC_WEIGHT>
311.170540955

> <PUBCHEM_TOTAL_CHARGE>
0

> <PUBCHEM_HEAVY_ATOM_COUNT>
22

> <PUBCHEM_ATOM_DEF_STEREO_COUNT>
0

> <PUBCHEM_ATOM_UDEF_STEREO_COUNT>
0

> <PUBCHEM_BOND_DEF_STEREO_COUNT>
0

> <PUBCHEM_BOND_UDEF_STEREO_COUNT>
0

> <PUBCHEM_ISOTOPIC_ATOM_COUNT>
0

> <PUBCHEM_COMPONENT_COUNT>
1

> <PUBCHEM_CACTVS_TAUTO_COUNT>
-1

> <PUBCHEM_COORDINATE_TYPE>
1
5
255

> <PUBCHEM_BONDANNOTATIONS>
11  12  8
11  13  8
12  15  8
13  16  8
14  18  8
14  19  8
15  17  8
16  17  8
18  20  8
19  21  8
20  22  8
21  22  8

$$$$
