112038
  -OEChem-05122609212D

 28 28  0     1  0  0  0  0  0999 V2000
    4.5691   -0.6796    0.0000 O   0  0  0  0  0  0  0  0  0  0  0  0
    5.1569    0.1294    0.0000 O   0  0  0  0  0  0  0  0  0  0  0  0
    2.0000   -0.3706    0.0000 O   0  0  0  0  0  0  0  0  0  0  0  0
    4.5289    2.4397    0.0000 O   0  0  0  0  0  0  0  0  0  0  0  0
    3.7601   -0.0919    0.0000 C   0  0  3  0  0  0  0  0  0  0  0  0
    4.3479    0.7172    0.0000 C   0  0  3  0  0  0  0  0  0  0  0  0
    2.9511   -0.6796    0.0000 C   0  0  0  0  0  0  0  0  0  0  0  0
    3.1723    0.7172    0.0000 C   0  0  0  0  0  0  0  0  0  0  0  0
    3.5388    1.3049    0.0000 C   0  0  0  0  0  0  0  0  0  0  0  0
    4.9356    1.5262    0.0000 C   0  0  0  0  0  0  0  0  0  0  0  0
    4.2601   -1.6307    0.0000 C   0  0  0  0  0  0  0  0  0  0  0  0
    3.2601   -1.6307    0.0000 C   0  0  0  0  0  0  0  0  0  0  0  0
    5.9302    1.4217    0.0000 C   0  0  0  0  0  0  0  0  0  0  0  0
    4.8479   -2.4397    0.0000 C   0  0  0  0  0  0  0  0  0  0  0  0
    3.6739    1.0816    0.0000 H   0  0  0  0  0  0  0  0  0  0  0  0
    2.8079    1.2188    0.0000 H   0  0  0  0  0  0  0  0  0  0  0  0
    2.6707    0.3527    0.0000 H   0  0  0  0  0  0  0  0  0  0  0  0
    3.9033    1.8065    0.0000 H   0  0  0  0  0  0  0  0  0  0  0  0
    3.0373    1.6694    0.0000 H   0  0  0  0  0  0  0  0  0  0  0  0
    3.1744    0.8034    0.0000 H   0  0  0  0  0  0  0  0  0  0  0  0
    2.8957   -2.1323    0.0000 H   0  0  0  0  0  0  0  0  0  0  0  0
    5.7233    0.3815    0.0000 H   0  0  0  0  0  0  0  0  0  0  0  0
    5.8654    0.8050    0.0000 H   0  0  0  0  0  0  0  0  0  0  0  0
    6.5468    1.3568    0.0000 H   0  0  0  0  0  0  0  0  0  0  0  0
    5.9950    2.0383    0.0000 H   0  0  0  0  0  0  0  0  0  0  0  0
    4.3463   -2.8042    0.0000 H   0  0  0  0  0  0  0  0  0  0  0  0
    5.2123   -2.9413    0.0000 H   0  0  0  0  0  0  0  0  0  0  0  0
    5.3495   -2.0753    0.0000 H   0  0  0  0  0  0  0  0  0  0  0  0
  1  5  1  0  0  0  0
  1 11  1  0  0  0  0
  2  6  1  0  0  0  0
  2 22  1  0  0  0  0
  3  7  2  0  0  0  0
  4 10  2  0  0  0  0
  5  6  1  0  0  0  0
  5  7  1  0  0  0  0
  5  8  1  0  0  0  0
  6  9  1  0  0  0  0
  6 10  1  0  0  0  0
  7 12  1  0  0  0  0
  8 15  1  0  0  0  0
  8 16  1  0  0  0  0
  8 17  1  0  0  0  0
  9 18  1  0  0  0  0
  9 19  1  0  0  0  0
  9 20  1  0  0  0  0
 10 13  1  0  0  0  0
 11 12  2  0  0  0  0
 11 14  1  0  0  0  0
 12 21  1  0  0  0  0
 13 23  1  0  0  0  0
 13 24  1  0  0  0  0
 13 25  1  0  0  0  0
 14 26  1  0  0  0  0
 14 27  1  0  0  0  0
 14 28  1  0  0  0  0
M  END
> <PUBCHEM_COMPOUND_CID>
112038

> <PUBCHEM_COMPOUND_CANONICALIZED>
1

> <PUBCHEM_CACTVS_COMPLEXITY>
331

> <PUBCHEM_CACTVS_HBOND_ACCEPTOR>
4

> <PUBCHEM_CACTVS_HBOND_DONOR>
1

> <PUBCHEM_CACTVS_ROTATABLE_BOND>
2

> <PUBCHEM_CACTVS_SUBSKEYS>
AAADccBwOAAAAAAAAAAAAAAAAAAAAQAAAAAAAAAAAAAAAAAAAAAAGgAACAAADESAgAACAAAABgCIAKBSAAIACAAgIAAACAFAAEgBABYAAQQCQAAE4AALAQMJAAAOgAAAAAAAAAAAAAAAAAAAAAAAAAAAAA==

> <PUBCHEM_IUPAC_OPENEYE_NAME>
2-(1-hydroxy-1-methyl-2-oxo-propyl)-2,5-dimethyl-furan-3-one

> <PUBCHEM_IUPAC_CAS_NAME>
2-(2-hydroxy-3-oxobutan-2-yl)-2,5-dimethyl-3-furanone

> <PUBCHEM_IUPAC_NAME_MARKUP>
2-(2-hydroxy-3-oxobutan-2-yl)-2,5-dimethylfuran-3-one

> <PUBCHEM_IUPAC_NAME>
2-(2-hydroxy-3-oxobutan-2-yl)-2,5-dimethylfuran-3-one

> <PUBCHEM_IUPAC_SYSTEMATIC_NAME>
2,5-dimethyl-2-(2-oxidanyl-3-oxidanylidene-butan-2-yl)furan-3-one

> <PUBCHEM_IUPAC_TRADITIONAL_NAME>
2-(1-hydroxy-2-keto-1-methyl-propyl)-2,5-dimethyl-furan-3-one

> <PUBCHEM_IUPAC_INCHI>
InChI=1S/C10H14O4/c1-6-5-8(12)10(4,14-6)9(3,13)7(2)11/h5,13H,1-4H3

> <PUBCHEM_IUPAC_INCHIKEY>
CAIJWAJUXIPUNS-UHFFFAOYSA-N

> <PUBCHEM_XLOGP3_AA>
0.5

> <PUBCHEM_EXACT_MASS>
198.08920892

> <PUBCHEM_MOLECULAR_FORMULA>
C10H14O4

> <PUBCHEM_MOLECULAR_WEIGHT>
198.22

> <PUBCHEM_SMILES>
CC1=CC(=O)C(O1)(C)C(C)(C(=O)C)O

> <PUBCHEM_CONNECTIVITY_SMILES>
CC1=CC(=O)C(O1)(C)C(C)(C(=O)C)O

> <PUBCHEM_CACTVS_TPSA>
63.6

> <PUBCHEM_MONOISOTOPIC_WEIGHT>
198.08920892

> <PUBCHEM_TOTAL_CHARGE>
0

> <PUBCHEM_HEAVY_ATOM_COUNT>
14

> <PUBCHEM_ATOM_DEF_STEREO_COUNT>
0

> <PUBCHEM_ATOM_UDEF_STEREO_COUNT>
2

> <PUBCHEM_BOND_DEF_STEREO_COUNT>
0

> <PUBCHEM_BOND_UDEF_STEREO_COUNT>
0

> <PUBCHEM_ISOTOPIC_ATOM_COUNT>
0

> <PUBCHEM_COMPONENT_COUNT>
1

> <PUBCHEM_CACTVS_TAUTO_COUNT>
-1

> <PUBCHEM_COORDINATE_TYPE>
1
5
255

> <PUBCHEM_BONDANNOTATIONS>
6  2  3
5  8  3

$$$$
