11214516
  -OEChem-05122608292D

108107  0     0  0  0  0  0  0999 V2000
   14.1244    2.4400    0.0000 N   0  0  0  0  0  0  0  0  0  0  0  0
   17.5885    2.4400    0.0000 C   0  0  0  0  0  0  0  0  0  0  0  0
   10.6603    2.4400    0.0000 C   0  0  0  0  0  0  0  0  0  0  0  0
   16.7224    2.9400    0.0000 C   0  0  0  0  0  0  0  0  0  0  0  0
   11.5263    2.9400    0.0000 C   0  0  0  0  0  0  0  0  0  0  0  0
   18.4545    2.9400    0.0000 C   0  0  0  0  0  0  0  0  0  0  0  0
    9.7942    2.9400    0.0000 C   0  0  0  0  0  0  0  0  0  0  0  0
   15.8564    2.4400    0.0000 C   0  0  0  0  0  0  0  0  0  0  0  0
   12.3923    2.4400    0.0000 C   0  0  0  0  0  0  0  0  0  0  0  0
   19.3205    2.4400    0.0000 C   0  0  0  0  0  0  0  0  0  0  0  0
    8.9282    2.4400    0.0000 C   0  0  0  0  0  0  0  0  0  0  0  0
   14.9904    2.9400    0.0000 C   0  0  0  0  0  0  0  0  0  0  0  0
   13.2583    2.9400    0.0000 C   0  0  0  0  0  0  0  0  0  0  0  0
   20.1865    2.9400    0.0000 C   0  0  0  0  0  0  0  0  0  0  0  0
    8.0622    2.9400    0.0000 C   0  0  0  0  0  0  0  0  0  0  0  0
   21.0526    2.4400    0.0000 C   0  0  0  0  0  0  0  0  0  0  0  0
    7.1962    2.4400    0.0000 C   0  0  0  0  0  0  0  0  0  0  0  0
   23.6506   -0.0600    0.0000 C   0  0  0  0  0  0  0  0  0  0  0  0
    4.5981   -0.0600    0.0000 C   0  0  0  0  0  0  0  0  0  0  0  0
   24.5167   -0.5600    0.0000 C   0  0  0  0  0  0  0  0  0  0  0  0
    3.7321   -0.5600    0.0000 C   0  0  0  0  0  0  0  0  0  0  0  0
   23.6506    0.9400    0.0000 C   0  0  0  0  0  0  0  0  0  0  0  0
    4.5981    0.9400    0.0000 C   0  0  0  0  0  0  0  0  0  0  0  0
   24.5167   -1.5600    0.0000 C   0  0  0  0  0  0  0  0  0  0  0  0
    3.7321   -1.5600    0.0000 C   0  0  0  0  0  0  0  0  0  0  0  0
   22.7846    1.4400    0.0000 C   0  0  0  0  0  0  0  0  0  0  0  0
    5.4641    1.4400    0.0000 C   0  0  0  0  0  0  0  0  0  0  0  0
   25.3827   -2.0600    0.0000 C   0  0  0  0  0  0  0  0  0  0  0  0
    2.8660   -2.0600    0.0000 C   0  0  0  0  0  0  0  0  0  0  0  0
   21.9186    2.9400    0.0000 C   0  0  0  0  0  0  0  0  0  0  0  0
    6.3301    2.9400    0.0000 C   0  0  0  0  0  0  0  0  0  0  0  0
   22.7846    2.4400    0.0000 C   0  0  0  0  0  0  0  0  0  0  0  0
    5.4641    2.4400    0.0000 C   0  0  0  0  0  0  0  0  0  0  0  0
   25.3827   -3.0600    0.0000 C   0  0  0  0  0  0  0  0  0  0  0  0
    2.8660   -3.0600    0.0000 C   0  0  0  0  0  0  0  0  0  0  0  0
   26.2487   -3.5600    0.0000 C   0  0  0  0  0  0  0  0  0  0  0  0
    2.0000   -3.5600    0.0000 C   0  0  0  0  0  0  0  0  0  0  0  0
   17.1899    1.9651    0.0000 H   0  0  0  0  0  0  0  0  0  0  0  0
   17.9870    1.9651    0.0000 H   0  0  0  0  0  0  0  0  0  0  0  0
   10.2617    1.9651    0.0000 H   0  0  0  0  0  0  0  0  0  0  0  0
   11.0588    1.9651    0.0000 H   0  0  0  0  0  0  0  0  0  0  0  0
   17.1210    3.4150    0.0000 H   0  0  0  0  0  0  0  0  0  0  0  0
   16.3239    3.4150    0.0000 H   0  0  0  0  0  0  0  0  0  0  0  0
   11.9248    3.4150    0.0000 H   0  0  0  0  0  0  0  0  0  0  0  0
   11.1278    3.4150    0.0000 H   0  0  0  0  0  0  0  0  0  0  0  0
   18.8530    3.4150    0.0000 H   0  0  0  0  0  0  0  0  0  0  0  0
   18.0560    3.4150    0.0000 H   0  0  0  0  0  0  0  0  0  0  0  0
   10.1928    3.4150    0.0000 H   0  0  0  0  0  0  0  0  0  0  0  0
    9.3957    3.4150    0.0000 H   0  0  0  0  0  0  0  0  0  0  0  0
   15.4579    1.9651    0.0000 H   0  0  0  0  0  0  0  0  0  0  0  0
   16.2549    1.9651    0.0000 H   0  0  0  0  0  0  0  0  0  0  0  0
   11.9938    1.9651    0.0000 H   0  0  0  0  0  0  0  0  0  0  0  0
   12.7908    1.9651    0.0000 H   0  0  0  0  0  0  0  0  0  0  0  0
   18.9220    1.9651    0.0000 H   0  0  0  0  0  0  0  0  0  0  0  0
   19.7190    1.9651    0.0000 H   0  0  0  0  0  0  0  0  0  0  0  0
    8.5297    1.9651    0.0000 H   0  0  0  0  0  0  0  0  0  0  0  0
    9.3267    1.9651    0.0000 H   0  0  0  0  0  0  0  0  0  0  0  0
   15.3889    3.4150    0.0000 H   0  0  0  0  0  0  0  0  0  0  0  0
   14.5919    3.4150    0.0000 H   0  0  0  0  0  0  0  0  0  0  0  0
   13.6569    3.4150    0.0000 H   0  0  0  0  0  0  0  0  0  0  0  0
   12.8598    3.4150    0.0000 H   0  0  0  0  0  0  0  0  0  0  0  0
   20.5851    3.4150    0.0000 H   0  0  0  0  0  0  0  0  0  0  0  0
   19.7880    3.4150    0.0000 H   0  0  0  0  0  0  0  0  0  0  0  0
    8.4607    3.4150    0.0000 H   0  0  0  0  0  0  0  0  0  0  0  0
    7.6637    3.4150    0.0000 H   0  0  0  0  0  0  0  0  0  0  0  0
   14.1244    1.8200    0.0000 H   0  0  0  0  0  0  0  0  0  0  0  0
   20.6540    1.9651    0.0000 H   0  0  0  0  0  0  0  0  0  0  0  0
   21.4511    1.9651    0.0000 H   0  0  0  0  0  0  0  0  0  0  0  0
    6.7976    1.9651    0.0000 H   0  0  0  0  0  0  0  0  0  0  0  0
    7.5947    1.9651    0.0000 H   0  0  0  0  0  0  0  0  0  0  0  0
   23.0401    0.0477    0.0000 H   0  0  0  0  0  0  0  0  0  0  0  0
   23.4386   -0.6426    0.0000 H   0  0  0  0  0  0  0  0  0  0  0  0
    4.8101   -0.6426    0.0000 H   0  0  0  0  0  0  0  0  0  0  0  0
    5.2087    0.0477    0.0000 H   0  0  0  0  0  0  0  0  0  0  0  0
   25.1272   -0.6677    0.0000 H   0  0  0  0  0  0  0  0  0  0  0  0
   24.7287    0.0226    0.0000 H   0  0  0  0  0  0  0  0  0  0  0  0
    3.5200    0.0226    0.0000 H   0  0  0  0  0  0  0  0  0  0  0  0
    3.1215   -0.6677    0.0000 H   0  0  0  0  0  0  0  0  0  0  0  0
   24.2612    0.8323    0.0000 H   0  0  0  0  0  0  0  0  0  0  0  0
   23.8627    1.5226    0.0000 H   0  0  0  0  0  0  0  0  0  0  0  0
    4.3860    1.5226    0.0000 H   0  0  0  0  0  0  0  0  0  0  0  0
    3.9875    0.8323    0.0000 H   0  0  0  0  0  0  0  0  0  0  0  0
   23.9061   -1.4523    0.0000 H   0  0  0  0  0  0  0  0  0  0  0  0
   24.3046   -2.1426    0.0000 H   0  0  0  0  0  0  0  0  0  0  0  0
    3.9441   -2.1426    0.0000 H   0  0  0  0  0  0  0  0  0  0  0  0
    4.3426   -1.4523    0.0000 H   0  0  0  0  0  0  0  0  0  0  0  0
   22.1740    1.5477    0.0000 H   0  0  0  0  0  0  0  0  0  0  0  0
   22.5726    0.8574    0.0000 H   0  0  0  0  0  0  0  0  0  0  0  0
    5.6762    0.8574    0.0000 H   0  0  0  0  0  0  0  0  0  0  0  0
    6.0747    1.5477    0.0000 H   0  0  0  0  0  0  0  0  0  0  0  0
   25.9933   -2.1677    0.0000 H   0  0  0  0  0  0  0  0  0  0  0  0
   25.5947   -1.4774    0.0000 H   0  0  0  0  0  0  0  0  0  0  0  0
    2.6540   -1.4774    0.0000 H   0  0  0  0  0  0  0  0  0  0  0  0
    2.2554   -2.1677    0.0000 H   0  0  0  0  0  0  0  0  0  0  0  0
   21.9186    3.5600    0.0000 H   0  0  0  0  0  0  0  0  0  0  0  0
    6.3301    3.5600    0.0000 H   0  0  0  0  0  0  0  0  0  0  0  0
   23.3215    2.7500    0.0000 H   0  0  0  0  0  0  0  0  0  0  0  0
    4.9272    2.7500    0.0000 H   0  0  0  0  0  0  0  0  0  0  0  0
   24.7721   -2.9523    0.0000 H   0  0  0  0  0  0  0  0  0  0  0  0
   25.1706   -3.6426    0.0000 H   0  0  0  0  0  0  0  0  0  0  0  0
    3.0781   -3.6426    0.0000 H   0  0  0  0  0  0  0  0  0  0  0  0
    3.4766   -2.9523    0.0000 H   0  0  0  0  0  0  0  0  0  0  0  0
   25.9387   -4.0969    0.0000 H   0  0  0  0  0  0  0  0  0  0  0  0
   26.7856   -3.8700    0.0000 H   0  0  0  0  0  0  0  0  0  0  0  0
   26.5587   -3.0231    0.0000 H   0  0  0  0  0  0  0  0  0  0  0  0
    1.6900   -3.0231    0.0000 H   0  0  0  0  0  0  0  0  0  0  0  0
    1.4631   -3.8700    0.0000 H   0  0  0  0  0  0  0  0  0  0  0  0
    2.3100   -4.0969    0.0000 H   0  0  0  0  0  0  0  0  0  0  0  0
  1 12  1  0  0  0  0
  1 13  1  0  0  0  0
  1 66  1  0  0  0  0
  2  4  1  0  0  0  0
  2  6  1  0  0  0  0
  2 38  1  0  0  0  0
  2 39  1  0  0  0  0
  3  5  1  0  0  0  0
  3  7  1  0  0  0  0
  3 40  1  0  0  0  0
  3 41  1  0  0  0  0
  4  8  1  0  0  0  0
  4 42  1  0  0  0  0
  4 43  1  0  0  0  0
  5  9  1  0  0  0  0
  5 44  1  0  0  0  0
  5 45  1  0  0  0  0
  6 10  1  0  0  0  0
  6 46  1  0  0  0  0
  6 47  1  0  0  0  0
  7 11  1  0  0  0  0
  7 48  1  0  0  0  0
  7 49  1  0  0  0  0
  8 12  1  0  0  0  0
  8 50  1  0  0  0  0
  8 51  1  0  0  0  0
  9 13  1  0  0  0  0
  9 52  1  0  0  0  0
  9 53  1  0  0  0  0
 10 14  1  0  0  0  0
 10 54  1  0  0  0  0
 10 55  1  0  0  0  0
 11 15  1  0  0  0  0
 11 56  1  0  0  0  0
 11 57  1  0  0  0  0
 12 58  1  0  0  0  0
 12 59  1  0  0  0  0
 13 60  1  0  0  0  0
 13 61  1  0  0  0  0
 14 16  1  0  0  0  0
 14 62  1  0  0  0  0
 14 63  1  0  0  0  0
 15 17  1  0  0  0  0
 15 64  1  0  0  0  0
 15 65  1  0  0  0  0
 16 30  1  0  0  0  0
 16 67  1  0  0  0  0
 16 68  1  0  0  0  0
 17 31  1  0  0  0  0
 17 69  1  0  0  0  0
 17 70  1  0  0  0  0
 18 20  1  0  0  0  0
 18 22  1  0  0  0  0
 18 71  1  0  0  0  0
 18 72  1  0  0  0  0
 19 21  1  0  0  0  0
 19 23  1  0  0  0  0
 19 73  1  0  0  0  0
 19 74  1  0  0  0  0
 20 24  1  0  0  0  0
 20 75  1  0  0  0  0
 20 76  1  0  0  0  0
 21 25  1  0  0  0  0
 21 77  1  0  0  0  0
 21 78  1  0  0  0  0
 22 26  1  0  0  0  0
 22 79  1  0  0  0  0
 22 80  1  0  0  0  0
 23 27  1  0  0  0  0
 23 81  1  0  0  0  0
 23 82  1  0  0  0  0
 24 28  1  0  0  0  0
 24 83  1  0  0  0  0
 24 84  1  0  0  0  0
 25 29  1  0  0  0  0
 25 85  1  0  0  0  0
 25 86  1  0  0  0  0
 26 32  1  0  0  0  0
 26 87  1  0  0  0  0
 26 88  1  0  0  0  0
 27 33  1  0  0  0  0
 27 89  1  0  0  0  0
 27 90  1  0  0  0  0
 28 34  1  0  0  0  0
 28 91  1  0  0  0  0
 28 92  1  0  0  0  0
 29 35  1  0  0  0  0
 29 93  1  0  0  0  0
 29 94  1  0  0  0  0
 30 32  2  0  0  0  0
 30 95  1  0  0  0  0
 31 33  2  0  0  0  0
 31 96  1  0  0  0  0
 32 97  1  0  0  0  0
 33 98  1  0  0  0  0
 34 36  1  0  0  0  0
 34 99  1  0  0  0  0
 34100  1  0  0  0  0
 35 37  1  0  0  0  0
 35101  1  0  0  0  0
 35102  1  0  0  0  0
 36103  1  0  0  0  0
 36104  1  0  0  0  0
 36105  1  0  0  0  0
 37106  1  0  0  0  0
 37107  1  0  0  0  0
 37108  1  0  0  0  0
M  END
> <PUBCHEM_COMPOUND_CID>
11214516

> <PUBCHEM_COMPOUND_CANONICALIZED>
1

> <PUBCHEM_CACTVS_COMPLEXITY>
398

> <PUBCHEM_CACTVS_HBOND_ACCEPTOR>
1

> <PUBCHEM_CACTVS_HBOND_DONOR>
1

> <PUBCHEM_CACTVS_ROTATABLE_BOND>
32

> <PUBCHEM_CACTVS_SUBSKEYS>
AAADcfB+AAAAAAAAAAAAAAAAAAAAAAAAAAAAAAAAAAAAAAAAAAAAHAAQAAAACADBAAQCAALAAACAACBCAAAAAAAgAAAICIAIAAgAAAIAgQAEAAAAkACIAAMQgIAAAAAAAAAAAAAAAAAAAAAAAAAAAAAAAA==

> <PUBCHEM_IUPAC_OPENEYE_NAME>
(Z)-N-[(Z)-octadec-9-enyl]octadec-9-en-1-amine

> <PUBCHEM_IUPAC_CAS_NAME>
(Z)-N-[(Z)-octadec-9-enyl]-9-octadecen-1-amine

> <PUBCHEM_IUPAC_NAME_MARKUP>
(<I>Z</I>)-<I>N</I>-[(<I>Z</I>)-octadec-9-enyl]octadec-9-en-1-amine

> <PUBCHEM_IUPAC_NAME>
(Z)-N-[(Z)-octadec-9-enyl]octadec-9-en-1-amine

> <PUBCHEM_IUPAC_SYSTEMATIC_NAME>
(Z)-N-[(Z)-octadec-9-enyl]octadec-9-en-1-amine

> <PUBCHEM_IUPAC_TRADITIONAL_NAME>
bis[(Z)-octadec-9-enyl]amine

> <PUBCHEM_IUPAC_INCHI>
InChI=1S/C36H71N/c1-3-5-7-9-11-13-15-17-19-21-23-25-27-29-31-33-35-37-36-34-32-30-28-26-24-22-20-18-16-14-12-10-8-6-4-2/h17-20,37H,3-16,21-36H2,1-2H3/b19-17-,20-18-

> <PUBCHEM_IUPAC_INCHIKEY>
JTQQDDNCCLCMER-CLFAGFIQSA-N

> <PUBCHEM_XLOGP3_AA>
15.6

> <PUBCHEM_EXACT_MASS>
517.55865127

> <PUBCHEM_MOLECULAR_FORMULA>
C36H71N

> <PUBCHEM_MOLECULAR_WEIGHT>
518.0

> <PUBCHEM_SMILES>
CCCCCCCC/C=C\CCCCCCCCNCCCCCCCC/C=C\CCCCCCCC

> <PUBCHEM_CONNECTIVITY_SMILES>
CCCCCCCCC=CCCCCCCCCNCCCCCCCCC=CCCCCCCCC

> <PUBCHEM_CACTVS_TPSA>
12

> <PUBCHEM_MONOISOTOPIC_WEIGHT>
517.55865127

> <PUBCHEM_TOTAL_CHARGE>
0

> <PUBCHEM_HEAVY_ATOM_COUNT>
37

> <PUBCHEM_ATOM_DEF_STEREO_COUNT>
0

> <PUBCHEM_ATOM_UDEF_STEREO_COUNT>
0

> <PUBCHEM_BOND_DEF_STEREO_COUNT>
2

> <PUBCHEM_BOND_UDEF_STEREO_COUNT>
0

> <PUBCHEM_ISOTOPIC_ATOM_COUNT>
0

> <PUBCHEM_COMPONENT_COUNT>
1

> <PUBCHEM_CACTVS_TAUTO_COUNT>
-1

> <PUBCHEM_COORDINATE_TYPE>
1
5
255

$$$$
