112321
  -OEChem-05122608332D

101102  0     0  0  0  0  0  0999 V2000
   10.6603   -7.5950    0.0000 O   0  0  0  0  0  0  0  0  0  0  0  0
    2.8660    5.9050    0.0000 O   0  0  0  0  0  0  0  0  0  0  0  0
   10.6603   -1.5950    0.0000 O   0  0  0  0  0  0  0  0  0  0  0  0
    8.0622    2.9050    0.0000 O   0  0  0  0  0  0  0  0  0  0  0  0
    8.9282   -1.5950    0.0000 N   0  0  0  0  0  0  0  0  0  0  0  0
    7.1962    1.4050    0.0000 N   0  0  0  0  0  0  0  0  0  0  0  0
    8.9282   -6.5950    0.0000 C   0  0  0  0  0  0  0  0  0  0  0  0
    2.8660    3.9050    0.0000 C   0  0  0  0  0  0  0  0  0  0  0  0
   12.3923   -6.5950    0.0000 C   0  0  0  0  0  0  0  0  0  0  0  0
    4.5981    6.9050    0.0000 C   0  0  0  0  0  0  0  0  0  0  0  0
    9.7942   -6.0950    0.0000 C   0  0  0  0  0  0  0  0  0  0  0  0
    3.7321    4.4050    0.0000 C   0  0  0  0  0  0  0  0  0  0  0  0
   11.5263   -6.0950    0.0000 C   0  0  0  0  0  0  0  0  0  0  0  0
    4.5981    5.9050    0.0000 C   0  0  0  0  0  0  0  0  0  0  0  0
   10.6603   -6.5950    0.0000 C   0  0  0  0  0  0  0  0  0  0  0  0
    3.7321    5.4050    0.0000 C   0  0  0  0  0  0  0  0  0  0  0  0
   10.6603   -4.5950    0.0000 C   0  0  0  0  0  0  0  0  0  0  0  0
    5.4641    4.4050    0.0000 C   0  0  0  0  0  0  0  0  0  0  0  0
    9.7942   -5.0950    0.0000 C   0  0  0  0  0  0  0  0  0  0  0  0
    4.5981    3.9050    0.0000 C   0  0  0  0  0  0  0  0  0  0  0  0
   11.5263   -5.0950    0.0000 C   0  0  0  0  0  0  0  0  0  0  0  0
    5.4641    5.4050    0.0000 C   0  0  0  0  0  0  0  0  0  0  0  0
    8.0622   -7.0950    0.0000 C   0  0  0  0  0  0  0  0  0  0  0  0
    8.4282   -5.7290    0.0000 C   0  0  0  0  0  0  0  0  0  0  0  0
    9.4282   -7.4610    0.0000 C   0  0  0  0  0  0  0  0  0  0  0  0
    2.0000    3.4050    0.0000 C   0  0  0  0  0  0  0  0  0  0  0  0
    3.3660    3.0390    0.0000 C   0  0  0  0  0  0  0  0  0  0  0  0
    2.3660    4.7710    0.0000 C   0  0  0  0  0  0  0  0  0  0  0  0
   13.2583   -7.0950    0.0000 C   0  0  0  0  0  0  0  0  0  0  0  0
   12.8923   -5.7290    0.0000 C   0  0  0  0  0  0  0  0  0  0  0  0
   11.8923   -7.4610    0.0000 C   0  0  0  0  0  0  0  0  0  0  0  0
    4.5981    7.9050    0.0000 C   0  0  0  0  0  0  0  0  0  0  0  0
    5.5981    6.9050    0.0000 C   0  0  0  0  0  0  0  0  0  0  0  0
    3.5981    6.9050    0.0000 C   0  0  0  0  0  0  0  0  0  0  0  0
   10.6603   -3.5950    0.0000 C   0  0  0  0  0  0  0  0  0  0  0  0
    6.3301    3.9050    0.0000 C   0  0  0  0  0  0  0  0  0  0  0  0
    9.7942   -3.0950    0.0000 C   0  0  0  0  0  0  0  0  0  0  0  0
    6.3301    2.9050    0.0000 C   0  0  0  0  0  0  0  0  0  0  0  0
    9.7942   -2.0950    0.0000 C   0  0  0  0  0  0  0  0  0  0  0  0
    7.1962    2.4050    0.0000 C   0  0  0  0  0  0  0  0  0  0  0  0
    8.0622   -0.0950    0.0000 C   0  0  0  0  0  0  0  0  0  0  0  0
    8.9282   -0.5950    0.0000 C   0  0  0  0  0  0  0  0  0  0  0  0
    8.0622    0.9050    0.0000 C   0  0  0  0  0  0  0  0  0  0  0  0
    9.2573   -4.7850    0.0000 H   0  0  0  0  0  0  0  0  0  0  0  0
    4.5981    3.2850    0.0000 H   0  0  0  0  0  0  0  0  0  0  0  0
   12.0632   -4.7850    0.0000 H   0  0  0  0  0  0  0  0  0  0  0  0
    6.0010    5.7150    0.0000 H   0  0  0  0  0  0  0  0  0  0  0  0
    7.7522   -6.5581    0.0000 H   0  0  0  0  0  0  0  0  0  0  0  0
    7.5252   -7.4050    0.0000 H   0  0  0  0  0  0  0  0  0  0  0  0
    8.3722   -7.6319    0.0000 H   0  0  0  0  0  0  0  0  0  0  0  0
    8.9651   -5.4190    0.0000 H   0  0  0  0  0  0  0  0  0  0  0  0
    8.1182   -5.1920    0.0000 H   0  0  0  0  0  0  0  0  0  0  0  0
    7.8913   -6.0390    0.0000 H   0  0  0  0  0  0  0  0  0  0  0  0
    8.8913   -7.7710    0.0000 H   0  0  0  0  0  0  0  0  0  0  0  0
    9.7382   -7.9980    0.0000 H   0  0  0  0  0  0  0  0  0  0  0  0
    9.9651   -7.1510    0.0000 H   0  0  0  0  0  0  0  0  0  0  0  0
    1.6900    3.9419    0.0000 H   0  0  0  0  0  0  0  0  0  0  0  0
    1.4631    3.0950    0.0000 H   0  0  0  0  0  0  0  0  0  0  0  0
    2.3100    2.8681    0.0000 H   0  0  0  0  0  0  0  0  0  0  0  0
    2.8291    2.7290    0.0000 H   0  0  0  0  0  0  0  0  0  0  0  0
    3.6760    2.5020    0.0000 H   0  0  0  0  0  0  0  0  0  0  0  0
    3.9030    3.3490    0.0000 H   0  0  0  0  0  0  0  0  0  0  0  0
    2.9030    5.0810    0.0000 H   0  0  0  0  0  0  0  0  0  0  0  0
    2.0560    5.3080    0.0000 H   0  0  0  0  0  0  0  0  0  0  0  0
    1.8291    4.4610    0.0000 H   0  0  0  0  0  0  0  0  0  0  0  0
   12.9483   -7.6319    0.0000 H   0  0  0  0  0  0  0  0  0  0  0  0
   13.7953   -7.4050    0.0000 H   0  0  0  0  0  0  0  0  0  0  0  0
   13.5683   -6.5581    0.0000 H   0  0  0  0  0  0  0  0  0  0  0  0
   13.4292   -6.0390    0.0000 H   0  0  0  0  0  0  0  0  0  0  0  0
   13.2023   -5.1920    0.0000 H   0  0  0  0  0  0  0  0  0  0  0  0
   12.3554   -5.4190    0.0000 H   0  0  0  0  0  0  0  0  0  0  0  0
   11.3554   -7.1510    0.0000 H   0  0  0  0  0  0  0  0  0  0  0  0
   11.5823   -7.9980    0.0000 H   0  0  0  0  0  0  0  0  0  0  0  0
   12.4292   -7.7710    0.0000 H   0  0  0  0  0  0  0  0  0  0  0  0
    5.2181    7.9050    0.0000 H   0  0  0  0  0  0  0  0  0  0  0  0
    4.5981    8.5250    0.0000 H   0  0  0  0  0  0  0  0  0  0  0  0
    3.9781    7.9050    0.0000 H   0  0  0  0  0  0  0  0  0  0  0  0
    5.5981    6.2850    0.0000 H   0  0  0  0  0  0  0  0  0  0  0  0
    6.2181    6.9050    0.0000 H   0  0  0  0  0  0  0  0  0  0  0  0
    5.5981    7.5250    0.0000 H   0  0  0  0  0  0  0  0  0  0  0  0
    3.5981    7.5250    0.0000 H   0  0  0  0  0  0  0  0  0  0  0  0
    2.9781    6.9050    0.0000 H   0  0  0  0  0  0  0  0  0  0  0  0
    3.5981    6.2850    0.0000 H   0  0  0  0  0  0  0  0  0  0  0  0
   11.2708   -3.7027    0.0000 H   0  0  0  0  0  0  0  0  0  0  0  0
   10.8723   -3.0124    0.0000 H   0  0  0  0  0  0  0  0  0  0  0  0
    6.9407    3.7973    0.0000 H   0  0  0  0  0  0  0  0  0  0  0  0
    6.5422    4.4876    0.0000 H   0  0  0  0  0  0  0  0  0  0  0  0
    9.1837   -2.9873    0.0000 H   0  0  0  0  0  0  0  0  0  0  0  0
    9.5822   -3.6776    0.0000 H   0  0  0  0  0  0  0  0  0  0  0  0
    5.7196    3.0127    0.0000 H   0  0  0  0  0  0  0  0  0  0  0  0
    6.1181    2.3224    0.0000 H   0  0  0  0  0  0  0  0  0  0  0  0
   11.1972   -7.9050    0.0000 H   0  0  0  0  0  0  0  0  0  0  0  0
    2.8660    6.5250    0.0000 H   0  0  0  0  0  0  0  0  0  0  0  0
    7.4516    0.0127    0.0000 H   0  0  0  0  0  0  0  0  0  0  0  0
    7.8501   -0.6776    0.0000 H   0  0  0  0  0  0  0  0  0  0  0  0
    9.5388   -0.7027    0.0000 H   0  0  0  0  0  0  0  0  0  0  0  0
    9.1403   -0.0124    0.0000 H   0  0  0  0  0  0  0  0  0  0  0  0
    8.6728    0.7973    0.0000 H   0  0  0  0  0  0  0  0  0  0  0  0
    8.2742    1.4876    0.0000 H   0  0  0  0  0  0  0  0  0  0  0  0
    8.3913   -1.9050    0.0000 H   0  0  0  0  0  0  0  0  0  0  0  0
    6.6592    1.0950    0.0000 H   0  0  0  0  0  0  0  0  0  0  0  0
  1 15  1  0  0  0  0
  1 92  1  0  0  0  0
  2 16  1  0  0  0  0
  2 93  1  0  0  0  0
  3 39  2  0  0  0  0
  4 40  2  0  0  0  0
  5 39  1  0  0  0  0
  5 42  1  0  0  0  0
  5100  1  0  0  0  0
  6 40  1  0  0  0  0
  6 43  1  0  0  0  0
  6101  1  0  0  0  0
  7 11  1  0  0  0  0
  7 23  1  0  0  0  0
  7 24  1  0  0  0  0
  7 25  1  0  0  0  0
  8 12  1  0  0  0  0
  8 26  1  0  0  0  0
  8 27  1  0  0  0  0
  8 28  1  0  0  0  0
  9 13  1  0  0  0  0
  9 29  1  0  0  0  0
  9 30  1  0  0  0  0
  9 31  1  0  0  0  0
 10 14  1  0  0  0  0
 10 32  1  0  0  0  0
 10 33  1  0  0  0  0
 10 34  1  0  0  0  0
 11 15  2  0  0  0  0
 11 19  1  0  0  0  0
 12 16  2  0  0  0  0
 12 20  1  0  0  0  0
 13 15  1  0  0  0  0
 13 21  2  0  0  0  0
 14 16  1  0  0  0  0
 14 22  2  0  0  0  0
 17 19  2  0  0  0  0
 17 21  1  0  0  0  0
 17 35  1  0  0  0  0
 18 20  2  0  0  0  0
 18 22  1  0  0  0  0
 18 36  1  0  0  0  0
 19 44  1  0  0  0  0
 20 45  1  0  0  0  0
 21 46  1  0  0  0  0
 22 47  1  0  0  0  0
 23 48  1  0  0  0  0
 23 49  1  0  0  0  0
 23 50  1  0  0  0  0
 24 51  1  0  0  0  0
 24 52  1  0  0  0  0
 24 53  1  0  0  0  0
 25 54  1  0  0  0  0
 25 55  1  0  0  0  0
 25 56  1  0  0  0  0
 26 57  1  0  0  0  0
 26 58  1  0  0  0  0
 26 59  1  0  0  0  0
 27 60  1  0  0  0  0
 27 61  1  0  0  0  0
 27 62  1  0  0  0  0
 28 63  1  0  0  0  0
 28 64  1  0  0  0  0
 28 65  1  0  0  0  0
 29 66  1  0  0  0  0
 29 67  1  0  0  0  0
 29 68  1  0  0  0  0
 30 69  1  0  0  0  0
 30 70  1  0  0  0  0
 30 71  1  0  0  0  0
 31 72  1  0  0  0  0
 31 73  1  0  0  0  0
 31 74  1  0  0  0  0
 32 75  1  0  0  0  0
 32 76  1  0  0  0  0
 32 77  1  0  0  0  0
 33 78  1  0  0  0  0
 33 79  1  0  0  0  0
 33 80  1  0  0  0  0
 34 81  1  0  0  0  0
 34 82  1  0  0  0  0
 34 83  1  0  0  0  0
 35 37  1  0  0  0  0
 35 84  1  0  0  0  0
 35 85  1  0  0  0  0
 36 38  1  0  0  0  0
 36 86  1  0  0  0  0
 36 87  1  0  0  0  0
 37 39  1  0  0  0  0
 37 88  1  0  0  0  0
 37 89  1  0  0  0  0
 38 40  1  0  0  0  0
 38 90  1  0  0  0  0
 38 91  1  0  0  0  0
 41 42  1  0  0  0  0
 41 43  1  0  0  0  0
 41 94  1  0  0  0  0
 41 95  1  0  0  0  0
 42 96  1  0  0  0  0
 42 97  1  0  0  0  0
 43 98  1  0  0  0  0
 43 99  1  0  0  0  0
M  END
> <PUBCHEM_COMPOUND_CID>
112321

> <PUBCHEM_COMPOUND_CANONICALIZED>
1

> <PUBCHEM_CACTVS_COMPLEXITY>
768

> <PUBCHEM_CACTVS_HBOND_ACCEPTOR>
4

> <PUBCHEM_CACTVS_HBOND_DONOR>
4

> <PUBCHEM_CACTVS_ROTATABLE_BOND>
14

> <PUBCHEM_CACTVS_SUBSKEYS>
AAADcfB/OAAAAAAAAAAAAAAAAAAAAAAAAAAwYAAAAAAAAAABQAAAHgAQCAAADgTBmAQyBoLAAgCIAiFSEAACAAAgIAAAiIEMCIgIJjKC0RKEcAAk1hGImAeYyOCPoAACAAAIAABAAAQAABAAAAAAAAAAAA==

> <PUBCHEM_IUPAC_OPENEYE_NAME>
3-(3,5-ditert-butyl-4-hydroxy-phenyl)-N-[3-[3-(3,5-ditert-butyl-4-hydroxy-phenyl)propanoylamino]propyl]propanamide

> <PUBCHEM_IUPAC_CAS_NAME>
3-(3,5-ditert-butyl-4-hydroxyphenyl)-N-[3-[[3-(3,5-ditert-butyl-4-hydroxyphenyl)-1-oxopropyl]amino]propyl]propanamide

> <PUBCHEM_IUPAC_NAME_MARKUP>
3-(3,5-di<I>tert</I>-butyl-4-hydroxyphenyl)-<I>N</I>-[3-[3-(3,5-di<I>tert</I>-butyl-4-hydroxyphenyl)propanoylamino]propyl]propanamide

> <PUBCHEM_IUPAC_NAME>
3-(3,5-ditert-butyl-4-hydroxyphenyl)-N-[3-[3-(3,5-ditert-butyl-4-hydroxyphenyl)propanoylamino]propyl]propanamide

> <PUBCHEM_IUPAC_SYSTEMATIC_NAME>
3-(3,5-ditert-butyl-4-oxidanyl-phenyl)-N-[3-[3-(3,5-ditert-butyl-4-oxidanyl-phenyl)propanoylamino]propyl]propanamide

> <PUBCHEM_IUPAC_TRADITIONAL_NAME>
3-(3,5-ditert-butyl-4-hydroxy-phenyl)-N-[3-[3-(3,5-ditert-butyl-4-hydroxy-phenyl)propanoylamino]propyl]propionamide

> <PUBCHEM_IUPAC_INCHI>
InChI=1S/C37H58N2O4/c1-34(2,3)26-20-24(21-27(32(26)42)35(4,5)6)14-16-30(40)38-18-13-19-39-31(41)17-15-25-22-28(36(7,8)9)33(43)29(23-25)37(10,11)12/h20-23,42-43H,13-19H2,1-12H3,(H,38,40)(H,39,41)

> <PUBCHEM_IUPAC_INCHIKEY>
KJEKRODBOPOEGG-UHFFFAOYSA-N

> <PUBCHEM_XLOGP3_AA>
9

> <PUBCHEM_EXACT_MASS>
594.43965834

> <PUBCHEM_MOLECULAR_FORMULA>
C37H58N2O4

> <PUBCHEM_MOLECULAR_WEIGHT>
594.9

> <PUBCHEM_SMILES>
CC(C)(C)C1=CC(=CC(=C1O)C(C)(C)C)CCC(=O)NCCCNC(=O)CCC2=CC(=C(C(=C2)C(C)(C)C)O)C(C)(C)C

> <PUBCHEM_CONNECTIVITY_SMILES>
CC(C)(C)C1=CC(=CC(=C1O)C(C)(C)C)CCC(=O)NCCCNC(=O)CCC2=CC(=C(C(=C2)C(C)(C)C)O)C(C)(C)C

> <PUBCHEM_CACTVS_TPSA>
98.7

> <PUBCHEM_MONOISOTOPIC_WEIGHT>
594.43965834

> <PUBCHEM_TOTAL_CHARGE>
0

> <PUBCHEM_HEAVY_ATOM_COUNT>
43

> <PUBCHEM_ATOM_DEF_STEREO_COUNT>
0

> <PUBCHEM_ATOM_UDEF_STEREO_COUNT>
0

> <PUBCHEM_BOND_DEF_STEREO_COUNT>
0

> <PUBCHEM_BOND_UDEF_STEREO_COUNT>
0

> <PUBCHEM_ISOTOPIC_ATOM_COUNT>
0

> <PUBCHEM_COMPONENT_COUNT>
1

> <PUBCHEM_CACTVS_TAUTO_COUNT>
-1

> <PUBCHEM_COORDINATE_TYPE>
1
5
255

> <PUBCHEM_BONDANNOTATIONS>
11  15  8
11  19  8
12  16  8
12  20  8
13  15  8
13  21  8
14  16  8
14  22  8
17  19  8
17  21  8
18  20  8
18  22  8

$$$$
