112469
  -OEChem-08032615222D

 36 36  0     1  0  0  0  0  0999 V2000
    5.4543   -0.7306    0.0000 C   0  0  3  0  0  0  0  0  0  0  0  0
    4.6453   -1.3184    0.0000 C   0  0  3  0  0  0  0  0  0  0  0  0
    6.2633   -1.3184    0.0000 C   0  0  0  0  0  0  0  0  0  0  0  0
    4.9543   -2.2694    0.0000 C   0  0  0  0  0  0  0  0  0  0  0  0
    5.9543   -2.2694    0.0000 C   0  0  0  0  0  0  0  0  0  0  0  0
    5.4543    0.2694    0.0000 C   0  0  0  0  0  0  0  0  0  0  0  0
    3.6942   -1.0094    0.0000 C   0  0  0  0  0  0  0  0  0  0  0  0
    6.3203    0.7694    0.0000 C   0  0  0  0  0  0  0  0  0  0  0  0
    2.9511   -1.6785    0.0000 C   0  0  0  0  0  0  0  0  0  0  0  0
    6.3203    1.7694    0.0000 C   0  0  0  0  0  0  0  0  0  0  0  0
    2.0000   -1.3695    0.0000 C   0  0  0  0  0  0  0  0  0  0  0  0
    7.1863    2.2694    0.0000 C   0  0  0  0  0  0  0  0  0  0  0  0
    4.9019   -0.4491    0.0000 H   0  0  0  0  0  0  0  0  0  0  0  0
    4.5483   -0.7060    0.0000 H   0  0  0  0  0  0  0  0  0  0  0  0
    6.8297   -1.5705    0.0000 H   0  0  0  0  0  0  0  0  0  0  0  0
    6.5733   -0.7814    0.0000 H   0  0  0  0  0  0  0  0  0  0  0  0
    4.3478   -2.3983    0.0000 H   0  0  0  0  0  0  0  0  0  0  0  0
    5.0191   -2.8860    0.0000 H   0  0  0  0  0  0  0  0  0  0  0  0
    5.8895   -2.8860    0.0000 H   0  0  0  0  0  0  0  0  0  0  0  0
    6.5607   -2.3983    0.0000 H   0  0  0  0  0  0  0  0  0  0  0  0
    5.2422    0.8520    0.0000 H   0  0  0  0  0  0  0  0  0  0  0  0
    4.8437    0.1618    0.0000 H   0  0  0  0  0  0  0  0  0  0  0  0
    3.9853   -0.4619    0.0000 H   0  0  0  0  0  0  0  0  0  0  0  0
    3.2056   -0.6276    0.0000 H   0  0  0  0  0  0  0  0  0  0  0  0
    6.5324    0.1868    0.0000 H   0  0  0  0  0  0  0  0  0  0  0  0
    6.9309    0.8771    0.0000 H   0  0  0  0  0  0  0  0  0  0  0  0
    2.6600   -2.2259    0.0000 H   0  0  0  0  0  0  0  0  0  0  0  0
    3.4396   -2.0602    0.0000 H   0  0  0  0  0  0  0  0  0  0  0  0
    6.1083    2.3520    0.0000 H   0  0  0  0  0  0  0  0  0  0  0  0
    5.7097    1.6618    0.0000 H   0  0  0  0  0  0  0  0  0  0  0  0
    2.1916   -0.7798    0.0000 H   0  0  0  0  0  0  0  0  0  0  0  0
    1.4103   -1.1779    0.0000 H   0  0  0  0  0  0  0  0  0  0  0  0
    1.8084   -1.9591    0.0000 H   0  0  0  0  0  0  0  0  0  0  0  0
    7.4963    1.7325    0.0000 H   0  0  0  0  0  0  0  0  0  0  0  0
    7.7233    2.5794    0.0000 H   0  0  0  0  0  0  0  0  0  0  0  0
    6.8763    2.8064    0.0000 H   0  0  0  0  0  0  0  0  0  0  0  0
  1  2  1  0  0  0  0
  1  3  1  0  0  0  0
  1  6  1  0  0  0  0
  1 13  1  0  0  0  0
  2  4  1  0  0  0  0
  2  7  1  0  0  0  0
  2 14  1  0  0  0  0
  3  5  1  0  0  0  0
  3 15  1  0  0  0  0
  3 16  1  0  0  0  0
  4  5  1  0  0  0  0
  4 17  1  0  0  0  0
  4 18  1  0  0  0  0
  5 19  1  0  0  0  0
  5 20  1  0  0  0  0
  6  8  1  0  0  0  0
  6 21  1  0  0  0  0
  6 22  1  0  0  0  0
  7  9  1  0  0  0  0
  7 23  1  0  0  0  0
  7 24  1  0  0  0  0
  8 10  1  0  0  0  0
  8 25  1  0  0  0  0
  8 26  1  0  0  0  0
  9 11  1  0  0  0  0
  9 27  1  0  0  0  0
  9 28  1  0  0  0  0
 10 12  1  0  0  0  0
 10 29  1  0  0  0  0
 10 30  1  0  0  0  0
 11 31  1  0  0  0  0
 11 32  1  0  0  0  0
 11 33  1  0  0  0  0
 12 34  1  0  0  0  0
 12 35  1  0  0  0  0
 12 36  1  0  0  0  0
M  END
> <PUBCHEM_COMPOUND_CID>
112469

> <PUBCHEM_COMPOUND_CANONICALIZED>
1

> <PUBCHEM_CACTVS_COMPLEXITY>
107

> <PUBCHEM_CACTVS_HBOND_ACCEPTOR>
0

> <PUBCHEM_CACTVS_HBOND_DONOR>
0

> <PUBCHEM_CACTVS_ROTATABLE_BOND>
5

> <PUBCHEM_CACTVS_SUBSKEYS>
AAADceBwAAAAAAAAAAAAAAAAAAAAAYAAAAAAAAAAAAAAAAAAAAAAGAAAAAAADQCAAAACAAAAAAAAAAAAAAAAAAAAAAAAAAAAAAAAAAIAAAAAAAAAAAAAAAEAgMAOgAAAAAAAAAAAAAAAAAAAAAAACAAAAA==

> <PUBCHEM_IUPAC_OPENEYE_NAME>
1-butyl-2-propyl-cyclopentane

> <PUBCHEM_IUPAC_CAS_NAME>
1-butyl-2-propylcyclopentane

> <PUBCHEM_IUPAC_NAME_MARKUP>
1-butyl-2-propylcyclopentane

> <PUBCHEM_IUPAC_NAME>
1-butyl-2-propylcyclopentane

> <PUBCHEM_IUPAC_SYSTEMATIC_NAME>
1-butyl-2-propyl-cyclopentane

> <PUBCHEM_IUPAC_TRADITIONAL_NAME>
1-butyl-2-propyl-cyclopentane

> <PUBCHEM_IUPAC_INCHI>
InChI=1S/C12H24/c1-3-5-8-12-10-6-9-11(12)7-4-2/h11-12H,3-10H2,1-2H3

> <PUBCHEM_IUPAC_INCHIKEY>
WYTQXVUYUANSKO-UHFFFAOYSA-N

> <PUBCHEM_XLOGP3_AA>
5.9

> <PUBCHEM_EXACT_MASS>
168.187800766

> <PUBCHEM_MOLECULAR_FORMULA>
C12H24

> <PUBCHEM_MOLECULAR_WEIGHT>
168.32

> <PUBCHEM_SMILES>
CCCCC1CCCC1CCC

> <PUBCHEM_CONNECTIVITY_SMILES>
CCCCC1CCCC1CCC

> <PUBCHEM_CACTVS_TPSA>
0

> <PUBCHEM_MONOISOTOPIC_WEIGHT>
168.187800766

> <PUBCHEM_TOTAL_CHARGE>
0

> <PUBCHEM_HEAVY_ATOM_COUNT>
12

> <PUBCHEM_ATOM_DEF_STEREO_COUNT>
0

> <PUBCHEM_ATOM_UDEF_STEREO_COUNT>
2

> <PUBCHEM_BOND_DEF_STEREO_COUNT>
0

> <PUBCHEM_BOND_UDEF_STEREO_COUNT>
0

> <PUBCHEM_ISOTOPIC_ATOM_COUNT>
0

> <PUBCHEM_COMPONENT_COUNT>
1

> <PUBCHEM_CACTVS_TAUTO_COUNT>
-1

> <PUBCHEM_COORDINATE_TYPE>
1
5
255

> <PUBCHEM_BONDANNOTATIONS>
1  6  3
2  7  3

$$$$
