112494
  -OEChem-08032615232D

 35 35  0     1  0  0  0  0  0999 V2000
    2.5369   -3.2500    0.0000 O   0  0  0  0  0  0  0  0  0  0  0  0
    5.1350    2.2500    0.0000 C   0  0  0  0  0  0  0  0  0  0  0  0
    5.1350    1.2500    0.0000 C   0  0  0  0  0  0  0  0  0  0  0  0
    5.1350    3.2500    0.0000 C   0  0  0  0  0  0  0  0  0  0  0  0
    6.1350    2.2500    0.0000 C   0  0  0  0  0  0  0  0  0  0  0  0
    4.1350    2.2500    0.0000 C   0  0  0  0  0  0  0  0  0  0  0  0
    4.2690   -0.2500    0.0000 C   0  0  0  0  0  0  0  0  0  0  0  0
    4.2690    0.7500    0.0000 C   0  0  0  0  0  0  0  0  0  0  0  0
    3.4030   -0.7500    0.0000 C   0  0  0  0  0  0  0  0  0  0  0  0
    3.4030   -1.7500    0.0000 C   0  0  3  0  0  0  0  0  0  0  0  0
    6.0010    0.7500    0.0000 C   0  0  0  0  0  0  0  0  0  0  0  0
    5.1350   -0.7500    0.0000 C   0  0  0  0  0  0  0  0  0  0  0  0
    6.0010   -0.2500    0.0000 C   0  0  0  0  0  0  0  0  0  0  0  0
    4.2690   -2.2500    0.0000 C   0  0  0  0  0  0  0  0  0  0  0  0
    2.5369   -2.2500    0.0000 C   0  0  0  0  0  0  0  0  0  0  0  0
    5.7550    3.2500    0.0000 H   0  0  0  0  0  0  0  0  0  0  0  0
    5.1350    3.8700    0.0000 H   0  0  0  0  0  0  0  0  0  0  0  0
    4.5150    3.2500    0.0000 H   0  0  0  0  0  0  0  0  0  0  0  0
    6.1350    1.6300    0.0000 H   0  0  0  0  0  0  0  0  0  0  0  0
    6.7550    2.2500    0.0000 H   0  0  0  0  0  0  0  0  0  0  0  0
    6.1350    2.8700    0.0000 H   0  0  0  0  0  0  0  0  0  0  0  0
    4.1350    2.8700    0.0000 H   0  0  0  0  0  0  0  0  0  0  0  0
    3.5150    2.2500    0.0000 H   0  0  0  0  0  0  0  0  0  0  0  0
    4.1350    1.6300    0.0000 H   0  0  0  0  0  0  0  0  0  0  0  0
    3.7321    1.0600    0.0000 H   0  0  0  0  0  0  0  0  0  0  0  0
    3.1909   -0.1674    0.0000 H   0  0  0  0  0  0  0  0  0  0  0  0
    2.7924   -0.8577    0.0000 H   0  0  0  0  0  0  0  0  0  0  0  0
    3.4030   -2.3700    0.0000 H   0  0  0  0  0  0  0  0  0  0  0  0
    6.5380    1.0600    0.0000 H   0  0  0  0  0  0  0  0  0  0  0  0
    5.1350   -1.3700    0.0000 H   0  0  0  0  0  0  0  0  0  0  0  0
    6.5380   -0.5600    0.0000 H   0  0  0  0  0  0  0  0  0  0  0  0
    3.9590   -2.7869    0.0000 H   0  0  0  0  0  0  0  0  0  0  0  0
    4.8059   -2.5600    0.0000 H   0  0  0  0  0  0  0  0  0  0  0  0
    4.5790   -1.7131    0.0000 H   0  0  0  0  0  0  0  0  0  0  0  0
    2.0000   -1.9400    0.0000 H   0  0  0  0  0  0  0  0  0  0  0  0
  1 15  2  0  0  0  0
  2  3  1  0  0  0  0
  2  4  1  0  0  0  0
  2  5  1  0  0  0  0
  2  6  1  0  0  0  0
  3  8  1  0  0  0  0
  3 11  2  0  0  0  0
  4 16  1  0  0  0  0
  4 17  1  0  0  0  0
  4 18  1  0  0  0  0
  5 19  1  0  0  0  0
  5 20  1  0  0  0  0
  5 21  1  0  0  0  0
  6 22  1  0  0  0  0
  6 23  1  0  0  0  0
  6 24  1  0  0  0  0
  7  8  2  0  0  0  0
  7  9  1  0  0  0  0
  7 12  1  0  0  0  0
  8 25  1  0  0  0  0
  9 10  1  0  0  0  0
  9 26  1  0  0  0  0
  9 27  1  0  0  0  0
 10 14  1  0  0  0  0
 10 15  1  0  0  0  0
 10 28  1  0  0  0  0
 11 13  1  0  0  0  0
 11 29  1  0  0  0  0
 12 13  2  0  0  0  0
 12 30  1  0  0  0  0
 13 31  1  0  0  0  0
 14 32  1  0  0  0  0
 14 33  1  0  0  0  0
 14 34  1  0  0  0  0
 15 35  1  0  0  0  0
M  END
> <PUBCHEM_COMPOUND_CID>
112494

> <PUBCHEM_COMPOUND_CANONICALIZED>
1

> <PUBCHEM_CACTVS_COMPLEXITY>
202

> <PUBCHEM_CACTVS_HBOND_ACCEPTOR>
1

> <PUBCHEM_CACTVS_HBOND_DONOR>
0

> <PUBCHEM_CACTVS_ROTATABLE_BOND>
4

> <PUBCHEM_CACTVS_SUBSKEYS>
AAADceBwIAAAAAAAAAAAAAAAAAAAAAAAAAAwAAAAAAAAAAABAAAAGgAAAAAADwCgmAIyAIAAAACIAihSgAACAAAgAAAIiAEAAIgIIDKAERCAIAAggAAIiAcIiMCPgAACAAAAAAAAAAQAAAAAAAAAAAAAAA==

> <PUBCHEM_IUPAC_OPENEYE_NAME>
3-(3-tert-butylphenyl)-2-methyl-propanal

> <PUBCHEM_IUPAC_CAS_NAME>
3-(3-tert-butylphenyl)-2-methylpropanal

> <PUBCHEM_IUPAC_NAME_MARKUP>
3-(3-<I>tert</I>-butylphenyl)-2-methylpropanal

> <PUBCHEM_IUPAC_NAME>
3-(3-tert-butylphenyl)-2-methylpropanal

> <PUBCHEM_IUPAC_SYSTEMATIC_NAME>
3-(3-tert-butylphenyl)-2-methyl-propanal

> <PUBCHEM_IUPAC_TRADITIONAL_NAME>
3-(3-tert-butylphenyl)-2-methyl-propionaldehyde

> <PUBCHEM_IUPAC_INCHI>
InChI=1S/C14H20O/c1-11(10-15)8-12-6-5-7-13(9-12)14(2,3)4/h5-7,9-11H,8H2,1-4H3

> <PUBCHEM_IUPAC_INCHIKEY>
GLZRHVTZLDNUQP-UHFFFAOYSA-N

> <PUBCHEM_XLOGP3_AA>
3.9

> <PUBCHEM_EXACT_MASS>
204.151415257

> <PUBCHEM_MOLECULAR_FORMULA>
C14H20O

> <PUBCHEM_MOLECULAR_WEIGHT>
204.31

> <PUBCHEM_SMILES>
CC(CC1=CC(=CC=C1)C(C)(C)C)C=O

> <PUBCHEM_CONNECTIVITY_SMILES>
CC(CC1=CC(=CC=C1)C(C)(C)C)C=O

> <PUBCHEM_CACTVS_TPSA>
17.1

> <PUBCHEM_MONOISOTOPIC_WEIGHT>
204.151415257

> <PUBCHEM_TOTAL_CHARGE>
0

> <PUBCHEM_HEAVY_ATOM_COUNT>
15

> <PUBCHEM_ATOM_DEF_STEREO_COUNT>
0

> <PUBCHEM_ATOM_UDEF_STEREO_COUNT>
1

> <PUBCHEM_BOND_DEF_STEREO_COUNT>
0

> <PUBCHEM_BOND_UDEF_STEREO_COUNT>
0

> <PUBCHEM_ISOTOPIC_ATOM_COUNT>
0

> <PUBCHEM_COMPONENT_COUNT>
1

> <PUBCHEM_CACTVS_TAUTO_COUNT>
-1

> <PUBCHEM_COORDINATE_TYPE>
1
5
255

> <PUBCHEM_BONDANNOTATIONS>
10  14  3
11  13  8
12  13  8
3  11  8
3  8  8
7  12  8
7  8  8

$$$$
