11277200
  -OEChem-05122608312D

 51 50  0     0  0  0  0  0  0999 V2000
    2.8660   -0.7500    0.0000 O   0  0  0  0  0  0  0  0  0  0  0  0
    3.7321   -2.2500    0.0000 O   0  0  0  0  0  0  0  0  0  0  0  0
    8.0622   -0.7500    0.0000 C   0  0  0  0  0  0  0  0  0  0  0  0
    8.9282   -1.2500    0.0000 C   0  0  0  0  0  0  0  0  0  0  0  0
    7.1962   -1.2500    0.0000 C   0  0  0  0  0  0  0  0  0  0  0  0
    9.7942   -0.7500    0.0000 C   0  0  0  0  0  0  0  0  0  0  0  0
    6.3301   -0.7500    0.0000 C   0  0  0  0  0  0  0  0  0  0  0  0
   10.6603   -1.2500    0.0000 C   0  0  0  0  0  0  0  0  0  0  0  0
    5.4641   -1.2500    0.0000 C   0  0  0  0  0  0  0  0  0  0  0  0
   11.5263   -0.7500    0.0000 C   0  0  0  0  0  0  0  0  0  0  0  0
    4.5981   -0.7500    0.0000 C   0  0  0  0  0  0  0  0  0  0  0  0
   12.3923   -1.2500    0.0000 C   0  0  0  0  0  0  0  0  0  0  0  0
   13.2583    0.2500    0.0000 C   0  0  0  0  0  0  0  0  0  0  0  0
   13.2583   -0.7500    0.0000 C   0  0  0  0  0  0  0  0  0  0  0  0
   14.1244    0.7500    0.0000 C   0  0  0  0  0  0  0  0  0  0  0  0
    3.7321   -1.2500    0.0000 C   0  0  0  0  0  0  0  0  0  0  0  0
   14.1244    1.7500    0.0000 C   0  0  0  0  0  0  0  0  0  0  0  0
   14.9904    2.2500    0.0000 C   0  0  0  0  0  0  0  0  0  0  0  0
    2.0000   -1.2500    0.0000 C   0  0  0  0  0  0  0  0  0  0  0  0
    8.4607   -0.2751    0.0000 H   0  0  0  0  0  0  0  0  0  0  0  0
    7.6637   -0.2751    0.0000 H   0  0  0  0  0  0  0  0  0  0  0  0
    8.5297   -1.7250    0.0000 H   0  0  0  0  0  0  0  0  0  0  0  0
    9.3267   -1.7250    0.0000 H   0  0  0  0  0  0  0  0  0  0  0  0
    6.7976   -1.7250    0.0000 H   0  0  0  0  0  0  0  0  0  0  0  0
    7.5947   -1.7250    0.0000 H   0  0  0  0  0  0  0  0  0  0  0  0
   10.1928   -0.2751    0.0000 H   0  0  0  0  0  0  0  0  0  0  0  0
    9.3957   -0.2751    0.0000 H   0  0  0  0  0  0  0  0  0  0  0  0
    6.7287   -0.2751    0.0000 H   0  0  0  0  0  0  0  0  0  0  0  0
    5.9316   -0.2751    0.0000 H   0  0  0  0  0  0  0  0  0  0  0  0
   10.2617   -1.7250    0.0000 H   0  0  0  0  0  0  0  0  0  0  0  0
   11.0588   -1.7250    0.0000 H   0  0  0  0  0  0  0  0  0  0  0  0
    5.0656   -1.7250    0.0000 H   0  0  0  0  0  0  0  0  0  0  0  0
    5.8626   -1.7250    0.0000 H   0  0  0  0  0  0  0  0  0  0  0  0
   11.9248   -0.2751    0.0000 H   0  0  0  0  0  0  0  0  0  0  0  0
   11.1278   -0.2751    0.0000 H   0  0  0  0  0  0  0  0  0  0  0  0
    4.9966   -0.2751    0.0000 H   0  0  0  0  0  0  0  0  0  0  0  0
    4.1996   -0.2751    0.0000 H   0  0  0  0  0  0  0  0  0  0  0  0
   12.3923   -1.8700    0.0000 H   0  0  0  0  0  0  0  0  0  0  0  0
   13.0463    0.8326    0.0000 H   0  0  0  0  0  0  0  0  0  0  0  0
   12.6477    0.1423    0.0000 H   0  0  0  0  0  0  0  0  0  0  0  0
   13.7953   -1.0600    0.0000 H   0  0  0  0  0  0  0  0  0  0  0  0
   14.3364    0.1674    0.0000 H   0  0  0  0  0  0  0  0  0  0  0  0
   14.7349    0.8577    0.0000 H   0  0  0  0  0  0  0  0  0  0  0  0
   13.9123    2.3326    0.0000 H   0  0  0  0  0  0  0  0  0  0  0  0
   13.5138    1.6423    0.0000 H   0  0  0  0  0  0  0  0  0  0  0  0
   15.3004    1.7131    0.0000 H   0  0  0  0  0  0  0  0  0  0  0  0
   15.5273    2.5600    0.0000 H   0  0  0  0  0  0  0  0  0  0  0  0
   14.6804    2.7869    0.0000 H   0  0  0  0  0  0  0  0  0  0  0  0
    1.6900   -0.7131    0.0000 H   0  0  0  0  0  0  0  0  0  0  0  0
    1.4631   -1.5600    0.0000 H   0  0  0  0  0  0  0  0  0  0  0  0
    2.3100   -1.7869    0.0000 H   0  0  0  0  0  0  0  0  0  0  0  0
  1 16  1  0  0  0  0
  1 19  1  0  0  0  0
  2 16  2  0  0  0  0
  3  4  1  0  0  0  0
  3  5  1  0  0  0  0
  3 20  1  0  0  0  0
  3 21  1  0  0  0  0
  4  6  1  0  0  0  0
  4 22  1  0  0  0  0
  4 23  1  0  0  0  0
  5  7  1  0  0  0  0
  5 24  1  0  0  0  0
  5 25  1  0  0  0  0
  6  8  1  0  0  0  0
  6 26  1  0  0  0  0
  6 27  1  0  0  0  0
  7  9  1  0  0  0  0
  7 28  1  0  0  0  0
  7 29  1  0  0  0  0
  8 10  1  0  0  0  0
  8 30  1  0  0  0  0
  8 31  1  0  0  0  0
  9 11  1  0  0  0  0
  9 32  1  0  0  0  0
  9 33  1  0  0  0  0
 10 12  1  0  0  0  0
 10 34  1  0  0  0  0
 10 35  1  0  0  0  0
 11 16  1  0  0  0  0
 11 36  1  0  0  0  0
 11 37  1  0  0  0  0
 12 14  2  0  0  0  0
 12 38  1  0  0  0  0
 13 14  1  0  0  0  0
 13 15  1  0  0  0  0
 13 39  1  0  0  0  0
 13 40  1  0  0  0  0
 14 41  1  0  0  0  0
 15 17  1  0  0  0  0
 15 42  1  0  0  0  0
 15 43  1  0  0  0  0
 17 18  1  0  0  0  0
 17 44  1  0  0  0  0
 17 45  1  0  0  0  0
 18 46  1  0  0  0  0
 18 47  1  0  0  0  0
 18 48  1  0  0  0  0
 19 49  1  0  0  0  0
 19 50  1  0  0  0  0
 19 51  1  0  0  0  0
M  END
> <PUBCHEM_COMPOUND_CID>
11277200

> <PUBCHEM_COMPOUND_CANONICALIZED>
1

> <PUBCHEM_CACTVS_COMPLEXITY>
221

> <PUBCHEM_CACTVS_HBOND_ACCEPTOR>
2

> <PUBCHEM_CACTVS_HBOND_DONOR>
0

> <PUBCHEM_CACTVS_ROTATABLE_BOND>
14

> <PUBCHEM_CACTVS_SUBSKEYS>
AAADcfB4MAAAAAAAAAAAAAAAAAAAAAAAAAAAAAAAAAAAAAAAAAAAGgAAAAAACACAgAICCAAABACIACDSCAAAAAAgAAAICAEAAAgAABIAAQAAAAAEgAAIAAOIyKCAAAAAAAAAAAAAAAAAAAAAAAAAAAAAAA==

> <PUBCHEM_IUPAC_OPENEYE_NAME>
methyl (Z)-hexadec-11-enoate

> <PUBCHEM_IUPAC_CAS_NAME>
(Z)-11-hexadecenoic acid methyl ester

> <PUBCHEM_IUPAC_NAME_MARKUP>
methyl (<I>Z</I>)-hexadec-11-enoate

> <PUBCHEM_IUPAC_NAME>
methyl (Z)-hexadec-11-enoate

> <PUBCHEM_IUPAC_SYSTEMATIC_NAME>
methyl (Z)-hexadec-11-enoate

> <PUBCHEM_IUPAC_TRADITIONAL_NAME>
(Z)-hexadec-11-enoic acid methyl ester

> <PUBCHEM_IUPAC_INCHI>
InChI=1S/C17H32O2/c1-3-4-5-6-7-8-9-10-11-12-13-14-15-16-17(18)19-2/h6-7H,3-5,8-16H2,1-2H3/b7-6-

> <PUBCHEM_IUPAC_INCHIKEY>
XBLFUMKMXKPZCT-SREVYHEPSA-N

> <PUBCHEM_XLOGP3_AA>
6.5

> <PUBCHEM_EXACT_MASS>
268.240230259

> <PUBCHEM_MOLECULAR_FORMULA>
C17H32O2

> <PUBCHEM_MOLECULAR_WEIGHT>
268.4

> <PUBCHEM_SMILES>
CCCC/C=C\CCCCCCCCCC(=O)OC

> <PUBCHEM_CONNECTIVITY_SMILES>
CCCCC=CCCCCCCCCCC(=O)OC

> <PUBCHEM_CACTVS_TPSA>
26.3

> <PUBCHEM_MONOISOTOPIC_WEIGHT>
268.240230259

> <PUBCHEM_TOTAL_CHARGE>
0

> <PUBCHEM_HEAVY_ATOM_COUNT>
19

> <PUBCHEM_ATOM_DEF_STEREO_COUNT>
0

> <PUBCHEM_ATOM_UDEF_STEREO_COUNT>
0

> <PUBCHEM_BOND_DEF_STEREO_COUNT>
1

> <PUBCHEM_BOND_UDEF_STEREO_COUNT>
0

> <PUBCHEM_ISOTOPIC_ATOM_COUNT>
0

> <PUBCHEM_COMPONENT_COUNT>
1

> <PUBCHEM_CACTVS_TAUTO_COUNT>
-1

> <PUBCHEM_COORDINATE_TYPE>
1
5
255

$$$$
