11458355
  -OEChem-05122608542D

 37 38  0     1  0  0  0  0  0999 V2000
    3.4088    1.1235    0.0000 C   0  0  0  0  0  0  0  0  0  0  0  0
    2.4339    0.9010    0.0000 C   0  0  0  0  0  0  0  0  0  0  0  0
    3.4088   -1.1235    0.0000 C   0  0  1  0  0  0  0  0  0  0  0  0
    4.1906    0.5000    0.0000 C   0  0  0  0  0  0  0  0  0  0  0  0
    2.0000   -0.0000    0.0000 C   0  0  0  0  0  0  0  0  0  0  0  0
    2.4339   -0.9010    0.0000 C   0  0  0  0  0  0  0  0  0  0  0  0
    4.1906   -0.5000    0.0000 C   0  0  0  0  0  0  0  0  0  0  0  0
    3.1863    2.0984    0.0000 C   0  0  0  0  0  0  0  0  0  0  0  0
    4.0323    1.9053    0.0000 C   0  0  0  0  0  0  0  0  0  0  0  0
    5.0846    1.0347    0.0000 C   0  0  0  0  0  0  0  0  0  0  0  0
    3.6313   -2.0984    0.0000 C   0  0  0  0  0  0  0  0  0  0  0  0
    5.0846   -1.0347    0.0000 C   0  0  0  0  0  0  0  0  0  0  0  0
    5.9906    0.5208    0.0000 C   0  0  0  0  0  0  0  0  0  0  0  0
    5.9906   -0.5208    0.0000 C   0  0  0  0  0  0  0  0  0  0  0  0
    6.8547    1.0241    0.0000 C   0  0  0  0  0  0  0  0  0  0  0  0
    2.4339    1.5210    0.0000 H   0  0  0  0  0  0  0  0  0  0  0  0
    1.8294    1.0389    0.0000 H   0  0  0  0  0  0  0  0  0  0  0  0
    2.9704   -1.5619    0.0000 H   0  0  0  0  0  0  0  0  0  0  0  0
    1.5153    0.3866    0.0000 H   0  0  0  0  0  0  0  0  0  0  0  0
    1.5153   -0.3866    0.0000 H   0  0  0  0  0  0  0  0  0  0  0  0
    1.8294   -1.0389    0.0000 H   0  0  0  0  0  0  0  0  0  0  0  0
    2.4339   -1.5210    0.0000 H   0  0  0  0  0  0  0  0  0  0  0  0
    3.7908    2.2364    0.0000 H   0  0  0  0  0  0  0  0  0  0  0  0
    3.0483    2.7029    0.0000 H   0  0  0  0  0  0  0  0  0  0  0  0
    2.5818    1.9604    0.0000 H   0  0  0  0  0  0  0  0  0  0  0  0
    4.5170    1.5188    0.0000 H   0  0  0  0  0  0  0  0  0  0  0  0
    4.4189    2.3901    0.0000 H   0  0  0  0  0  0  0  0  0  0  0  0
    3.5476    2.2919    0.0000 H   0  0  0  0  0  0  0  0  0  0  0  0
    5.0774    1.6546    0.0000 H   0  0  0  0  0  0  0  0  0  0  0  0
    3.0269   -2.2364    0.0000 H   0  0  0  0  0  0  0  0  0  0  0  0
    3.7693   -2.7029    0.0000 H   0  0  0  0  0  0  0  0  0  0  0  0
    4.2358   -1.9604    0.0000 H   0  0  0  0  0  0  0  0  0  0  0  0
    5.0774   -1.6546    0.0000 H   0  0  0  0  0  0  0  0  0  0  0  0
    6.5264   -0.8329    0.0000 H   0  0  0  0  0  0  0  0  0  0  0  0
    7.1668    0.4884    0.0000 H   0  0  0  0  0  0  0  0  0  0  0  0
    7.3905    1.3362    0.0000 H   0  0  0  0  0  0  0  0  0  0  0  0
    6.5427    1.5599    0.0000 H   0  0  0  0  0  0  0  0  0  0  0  0
  1  2  1  0  0  0  0
  1  4  1  0  0  0  0
  1  8  1  0  0  0  0
  1  9  1  0  0  0  0
  2  5  1  0  0  0  0
  2 16  1  0  0  0  0
  2 17  1  0  0  0  0
  3  6  1  0  0  0  0
  3  7  1  0  0  0  0
  3 11  1  1  0  0  0
  3 18  1  0  0  0  0
  4  7  2  0  0  0  0
  4 10  1  0  0  0  0
  5  6  1  0  0  0  0
  5 19  1  0  0  0  0
  5 20  1  0  0  0  0
  6 21  1  0  0  0  0
  6 22  1  0  0  0  0
  7 12  1  0  0  0  0
  8 23  1  0  0  0  0
  8 24  1  0  0  0  0
  8 25  1  0  0  0  0
  9 26  1  0  0  0  0
  9 27  1  0  0  0  0
  9 28  1  0  0  0  0
 10 13  2  0  0  0  0
 10 29  1  0  0  0  0
 11 30  1  0  0  0  0
 11 31  1  0  0  0  0
 11 32  1  0  0  0  0
 12 14  2  0  0  0  0
 12 33  1  0  0  0  0
 13 14  1  0  0  0  0
 13 15  1  0  0  0  0
 14 34  1  0  0  0  0
 15 35  1  0  0  0  0
 15 36  1  0  0  0  0
 15 37  1  0  0  0  0
M  END
> <PUBCHEM_COMPOUND_CID>
11458355

> <PUBCHEM_COMPOUND_CANONICALIZED>
1

> <PUBCHEM_CACTVS_COMPLEXITY>
216

> <PUBCHEM_CACTVS_HBOND_ACCEPTOR>
0

> <PUBCHEM_CACTVS_HBOND_DONOR>
0

> <PUBCHEM_CACTVS_ROTATABLE_BOND>
0

> <PUBCHEM_CACTVS_SUBSKEYS>
AAADceBwAAAAAAAAAAAAAAAAAAAAAAAAAAAwAAAABgAAAAABAAAAGAAAAAAADwCAGAAyAIAAAACAAiBCAAACAAAgAAAIiAAAAIgIICKAERCAIAAggAAIiAcAgMAPwAACAAAQAACAAAQAACAAAAAAAAAAAA==

> <PUBCHEM_IUPAC_OPENEYE_NAME>
(9S)-3,5,5,9-tetramethyl-6,7,8,9-tetrahydrobenzo[7]annulene

> <PUBCHEM_IUPAC_CAS_NAME>
(9S)-3,5,5,9-tetramethyl-6,7,8,9-tetrahydrobenzo[7]annulene

> <PUBCHEM_IUPAC_NAME_MARKUP>
(9<I>S</I>)-3,5,5,9-tetramethyl-6,7,8,9-tetrahydrobenzo[7]annulene

> <PUBCHEM_IUPAC_NAME>
(9S)-3,5,5,9-tetramethyl-6,7,8,9-tetrahydrobenzo[7]annulene

> <PUBCHEM_IUPAC_SYSTEMATIC_NAME>
(9S)-3,5,5,9-tetramethyl-6,7,8,9-tetrahydrobenzo[7]annulene

> <PUBCHEM_IUPAC_TRADITIONAL_NAME>
(9S)-3,5,5,9-tetramethyl-6,7,8,9-tetrahydrobenzocycloheptene

> <PUBCHEM_IUPAC_INCHI>
InChI=1S/C15H22/c1-11-7-8-13-12(2)6-5-9-15(3,4)14(13)10-11/h7-8,10,12H,5-6,9H2,1-4H3/t12-/m0/s1

> <PUBCHEM_IUPAC_INCHIKEY>
RIHWULAZACSXEV-LBPRGKRZSA-N

> <PUBCHEM_XLOGP3_AA>
5.4

> <PUBCHEM_EXACT_MASS>
202.172150702

> <PUBCHEM_MOLECULAR_FORMULA>
C15H22

> <PUBCHEM_MOLECULAR_WEIGHT>
202.33

> <PUBCHEM_SMILES>
C[C@H]1CCCC(C2=C1C=CC(=C2)C)(C)C

> <PUBCHEM_CONNECTIVITY_SMILES>
CC1CCCC(C2=C1C=CC(=C2)C)(C)C

> <PUBCHEM_CACTVS_TPSA>
0

> <PUBCHEM_MONOISOTOPIC_WEIGHT>
202.172150702

> <PUBCHEM_TOTAL_CHARGE>
0

> <PUBCHEM_HEAVY_ATOM_COUNT>
15

> <PUBCHEM_ATOM_DEF_STEREO_COUNT>
1

> <PUBCHEM_ATOM_UDEF_STEREO_COUNT>
0

> <PUBCHEM_BOND_DEF_STEREO_COUNT>
0

> <PUBCHEM_BOND_UDEF_STEREO_COUNT>
0

> <PUBCHEM_ISOTOPIC_ATOM_COUNT>
0

> <PUBCHEM_COMPONENT_COUNT>
1

> <PUBCHEM_CACTVS_TAUTO_COUNT>
-1

> <PUBCHEM_COORDINATE_TYPE>
1
5
255

> <PUBCHEM_BONDANNOTATIONS>
10  13  8
12  14  8
13  14  8
3  11  5
4  10  8
4  7  8
7  12  8

$$$$
