11573479
  -OEChem-05122609472D

 54 56  0     1  0  0  0  0  0999 V2000
    2.4900   -2.3540    0.0000 O   0  0  0  0  0  0  0  0  0  0  0  0
    3.9999   -3.2026    0.0000 O   0  0  0  0  0  0  0  0  0  0  0  0
    9.2598    2.6057    0.0000 O   0  0  0  0  0  0  0  0  0  0  0  0
    4.8738   -0.9360    0.0000 C   0  0  2  0  0  0  0  0  0  0  0  0
    4.8738    0.0640    0.0000 C   0  0  2  0  0  0  0  0  0  0  0  0
    3.9798   -1.4707    0.0000 C   0  0  2  0  0  0  0  0  0  0  0  0
    3.9798    0.5986    0.0000 C   0  0  0  0  0  0  0  0  0  0  0  0
    5.7398   -1.4360    0.0000 C   0  0  0  0  0  0  0  0  0  0  0  0
    3.0738   -0.9568    0.0000 C   0  0  0  0  0  0  0  0  0  0  0  0
    3.0738    0.0848    0.0000 C   0  0  0  0  0  0  0  0  0  0  0  0
    5.7398    0.5640    0.0000 C   0  0  0  0  0  0  0  0  0  0  0  0
    6.6058   -0.9360    0.0000 C   0  0  0  0  0  0  0  0  0  0  0  0
    4.8738    1.0640    0.0000 C   0  0  0  0  0  0  0  0  0  0  0  0
    6.6058    0.0640    0.0000 C   0  0  0  0  0  0  0  0  0  0  0  0
    4.4898   -2.3309    0.0000 C   0  0  0  0  0  0  0  0  0  0  0  0
    3.4899   -2.3424    0.0000 C   0  0  0  0  0  0  0  0  0  0  0  0
    5.7238    1.6055    0.0000 C   0  0  0  0  0  0  0  0  0  0  0  0
    7.5158    0.5708    0.0000 C   0  0  0  0  0  0  0  0  0  0  0  0
    7.5239    1.6124    0.0000 C   0  0  0  0  0  0  0  0  0  0  0  0
    6.6218    2.1332    0.0000 C   0  0  0  0  0  0  0  0  0  0  0  0
    8.3918    2.1091    0.0000 C   0  0  0  0  0  0  0  0  0  0  0  0
    2.0000   -3.2257    0.0000 C   0  0  0  0  0  0  0  0  0  0  0  0
    7.8952    2.9770    0.0000 C   0  0  0  0  0  0  0  0  0  0  0  0
    8.8885    1.2411    0.0000 C   0  0  0  0  0  0  0  0  0  0  0  0
    4.8803   -1.7860    0.0000 H   0  0  0  0  0  0  0  0  0  0  0  0
    4.3844    1.0684    0.0000 H   0  0  0  0  0  0  0  0  0  0  0  0
    3.5862    1.0777    0.0000 H   0  0  0  0  0  0  0  0  0  0  0  0
    5.3413   -1.9110    0.0000 H   0  0  0  0  0  0  0  0  0  0  0  0
    6.1383   -1.9110    0.0000 H   0  0  0  0  0  0  0  0  0  0  0  0
    2.4629   -0.8507    0.0000 H   0  0  0  0  0  0  0  0  0  0  0  0
    2.8647   -1.5405    0.0000 H   0  0  0  0  0  0  0  0  0  0  0  0
    2.8647    0.6685    0.0000 H   0  0  0  0  0  0  0  0  0  0  0  0
    2.4629   -0.0213    0.0000 H   0  0  0  0  0  0  0  0  0  0  0  0
    6.8179   -1.5186    0.0000 H   0  0  0  0  0  0  0  0  0  0  0  0
    7.2164   -0.8284    0.0000 H   0  0  0  0  0  0  0  0  0  0  0  0
    5.4938    1.0640    0.0000 H   0  0  0  0  0  0  0  0  0  0  0  0
    4.8738    1.6840    0.0000 H   0  0  0  0  0  0  0  0  0  0  0  0
    4.2538    1.0640    0.0000 H   0  0  0  0  0  0  0  0  0  0  0  0
    3.9565   -2.6471    0.0000 H   0  0  0  0  0  0  0  0  0  0  0  0
    4.8060   -2.8642    0.0000 H   0  0  0  0  0  0  0  0  0  0  0  0
    5.0231   -2.0147    0.0000 H   0  0  0  0  0  0  0  0  0  0  0  0
    5.1833    1.9093    0.0000 H   0  0  0  0  0  0  0  0  0  0  0  0
    8.0492    0.2546    0.0000 H   0  0  0  0  0  0  0  0  0  0  0  0
    6.6194    2.7532    0.0000 H   0  0  0  0  0  0  0  0  0  0  0  0
    1.4595   -2.9220    0.0000 H   0  0  0  0  0  0  0  0  0  0  0  0
    1.6962   -3.7662    0.0000 H   0  0  0  0  0  0  0  0  0  0  0  0
    2.5405   -3.5295    0.0000 H   0  0  0  0  0  0  0  0  0  0  0  0
    8.4333    3.2850    0.0000 H   0  0  0  0  0  0  0  0  0  0  0  0
    7.5872    3.5152    0.0000 H   0  0  0  0  0  0  0  0  0  0  0  0
    7.3570    2.6691    0.0000 H   0  0  0  0  0  0  0  0  0  0  0  0
    8.3503    0.9332    0.0000 H   0  0  0  0  0  0  0  0  0  0  0  0
    9.1964    0.7030    0.0000 H   0  0  0  0  0  0  0  0  0  0  0  0
    9.4266    1.5491    0.0000 H   0  0  0  0  0  0  0  0  0  0  0  0
    9.2621    3.2257    0.0000 H   0  0  0  0  0  0  0  0  0  0  0  0
  1 16  1  0  0  0  0
  1 22  1  0  0  0  0
  2 16  2  0  0  0  0
  3 21  1  0  0  0  0
  3 54  1  0  0  0  0
  4  5  1  0  0  0  0
  4  6  1  0  0  0  0
  4  8  1  0  0  0  0
  4 25  1  6  0  0  0
  5  7  1  0  0  0  0
  5 11  1  0  0  0  0
  5 13  1  1  0  0  0
  6  9  1  0  0  0  0
  6 15  1  1  0  0  0
  6 16  1  0  0  0  0
  7 10  1  0  0  0  0
  7 26  1  0  0  0  0
  7 27  1  0  0  0  0
  8 12  1  0  0  0  0
  8 28  1  0  0  0  0
  8 29  1  0  0  0  0
  9 10  1  0  0  0  0
  9 30  1  0  0  0  0
  9 31  1  0  0  0  0
 10 32  1  0  0  0  0
 10 33  1  0  0  0  0
 11 14  2  0  0  0  0
 11 17  1  0  0  0  0
 12 14  1  0  0  0  0
 12 34  1  0  0  0  0
 12 35  1  0  0  0  0
 13 36  1  0  0  0  0
 13 37  1  0  0  0  0
 13 38  1  0  0  0  0
 14 18  1  0  0  0  0
 15 39  1  0  0  0  0
 15 40  1  0  0  0  0
 15 41  1  0  0  0  0
 17 20  2  0  0  0  0
 17 42  1  0  0  0  0
 18 19  2  0  0  0  0
 18 43  1  0  0  0  0
 19 20  1  0  0  0  0
 19 21  1  0  0  0  0
 20 44  1  0  0  0  0
 21 23  1  0  0  0  0
 21 24  1  0  0  0  0
 22 45  1  0  0  0  0
 22 46  1  0  0  0  0
 22 47  1  0  0  0  0
 23 48  1  0  0  0  0
 23 49  1  0  0  0  0
 23 50  1  0  0  0  0
 24 51  1  0  0  0  0
 24 52  1  0  0  0  0
 24 53  1  0  0  0  0
M  END
> <PUBCHEM_COMPOUND_CID>
11573479

> <PUBCHEM_COMPOUND_CANONICALIZED>
1

> <PUBCHEM_CACTVS_COMPLEXITY>
499

> <PUBCHEM_CACTVS_HBOND_ACCEPTOR>
3

> <PUBCHEM_CACTVS_HBOND_DONOR>
1

> <PUBCHEM_CACTVS_ROTATABLE_BOND>
3

> <PUBCHEM_CACTVS_SUBSKEYS>
AAADceB4MAAAAAAAAAAAAAAAAAAAAAAAAAAwYMAAAAAAAADBAAAAGgAACAAAD0SAmAIyCIAABgCIAiDSCAACAAAgAAAIiAEACIgIJjKAERCAcAAkwAEImAeIyPCPwAACAAAQAACAAAQAACAAAAAAAAAAAA==

> <PUBCHEM_IUPAC_OPENEYE_NAME>
methyl (1R,4aS,10aR)-7-(1-hydroxy-1-methyl-ethyl)-1,4a-dimethyl-2,3,4,9,10,10a-hexahydrophenanthrene-1-carboxylate

> <PUBCHEM_IUPAC_CAS_NAME>
(1R,4aS,10aR)-7-(2-hydroxypropan-2-yl)-1,4a-dimethyl-2,3,4,9,10,10a-hexahydrophenanthrene-1-carboxylic acid methyl ester

> <PUBCHEM_IUPAC_NAME_MARKUP>
methyl (1<I>R</I>,4<I>a</I><I>S</I>,10<I>a</I><I>R</I>)-7-(2-hydroxypropan-2-yl)-1,4<I>a</I>-dimethyl-2,3,4,9,10,10<I>a</I>-hexahydrophenanthrene-1-carboxylate

> <PUBCHEM_IUPAC_NAME>
methyl (1R,4aS,10aR)-7-(2-hydroxypropan-2-yl)-1,4a-dimethyl-2,3,4,9,10,10a-hexahydrophenanthrene-1-carboxylate

> <PUBCHEM_IUPAC_SYSTEMATIC_NAME>
methyl (1R,4aS,10aR)-1,4a-dimethyl-7-(2-oxidanylpropan-2-yl)-2,3,4,9,10,10a-hexahydrophenanthrene-1-carboxylate

> <PUBCHEM_IUPAC_TRADITIONAL_NAME>
(1R,4aS,10aR)-7-(1-hydroxy-1-methyl-ethyl)-1,4a-dimethyl-2,3,4,9,10,10a-hexahydrophenanthrene-1-carboxylic acid methyl ester

> <PUBCHEM_IUPAC_INCHI>
InChI=1S/C21H30O3/c1-19(2,23)15-8-9-16-14(13-15)7-10-17-20(16,3)11-6-12-21(17,4)18(22)24-5/h8-9,13,17,23H,6-7,10-12H2,1-5H3/t17-,20-,21-/m1/s1

> <PUBCHEM_IUPAC_INCHIKEY>
IGUDTNVZIOWVIV-DUXKGJEZSA-N

> <PUBCHEM_XLOGP3_AA>
4.5

> <PUBCHEM_EXACT_MASS>
330.21949481

> <PUBCHEM_MOLECULAR_FORMULA>
C21H30O3

> <PUBCHEM_MOLECULAR_WEIGHT>
330.5

> <PUBCHEM_SMILES>
C[C@]12CCC[C@@]([C@@H]1CCC3=C2C=CC(=C3)C(C)(C)O)(C)C(=O)OC

> <PUBCHEM_CONNECTIVITY_SMILES>
CC12CCCC(C1CCC3=C2C=CC(=C3)C(C)(C)O)(C)C(=O)OC

> <PUBCHEM_CACTVS_TPSA>
46.5

> <PUBCHEM_MONOISOTOPIC_WEIGHT>
330.21949481

> <PUBCHEM_TOTAL_CHARGE>
0

> <PUBCHEM_HEAVY_ATOM_COUNT>
24

> <PUBCHEM_ATOM_DEF_STEREO_COUNT>
3

> <PUBCHEM_ATOM_UDEF_STEREO_COUNT>
0

> <PUBCHEM_BOND_DEF_STEREO_COUNT>
0

> <PUBCHEM_BOND_UDEF_STEREO_COUNT>
0

> <PUBCHEM_ISOTOPIC_ATOM_COUNT>
0

> <PUBCHEM_COMPONENT_COUNT>
1

> <PUBCHEM_CACTVS_TAUTO_COUNT>
-1

> <PUBCHEM_COORDINATE_TYPE>
1
5
255

> <PUBCHEM_BONDANNOTATIONS>
11  14  8
11  17  8
14  18  8
17  20  8
18  19  8
19  20  8
4  25  6
5  13  5
6  15  5

$$$$
