11603678
  -OEChem-05122608192D

 25 24  0     0  0  0  0  0  0999 V2000
    8.0622    1.3730    0.0000 S   0  0  0  0  0  0  0  0  0  0  0  0
    4.9641    0.7390    0.0000 F   0  0  0  0  0  0  0  0  0  0  0  0
    5.9641   -0.9930    0.0000 F   0  0  0  0  0  0  0  0  0  0  0  0
    5.8301    1.2390    0.0000 F   0  0  0  0  0  0  0  0  0  0  0  0
    6.8301   -0.4930    0.0000 F   0  0  0  0  0  0  0  0  0  0  0  0
    4.0981    0.2390    0.0000 F   0  0  0  0  0  0  0  0  0  0  0  0
    5.0981   -1.4930    0.0000 F   0  0  0  0  0  0  0  0  0  0  0  0
    7.6962    0.0070    0.0000 F   0  0  0  0  0  0  0  0  0  0  0  0
    6.6962    1.7390    0.0000 F   0  0  0  0  0  0  0  0  0  0  0  0
    3.2321   -0.2610    0.0000 F   0  0  0  0  0  0  0  0  0  0  0  0
    4.2321   -1.9930    0.0000 F   0  0  0  0  0  0  0  0  0  0  0  0
    2.0000   -2.1270    0.0000 F   0  0  0  0  0  0  0  0  0  0  0  0
    2.3660   -0.7610    0.0000 F   0  0  0  0  0  0  0  0  0  0  0  0
    3.3660   -2.4930    0.0000 F   0  0  0  0  0  0  0  0  0  0  0  0
    8.5622    0.5070    0.0000 O   0  0  0  0  0  0  0  0  0  0  0  0
    7.5622    2.2390    0.0000 O   0  0  0  0  0  0  0  0  0  0  0  0
    8.9282    1.8730    0.0000 N   0  0  0  0  0  0  0  0  0  0  0  0
    5.4641   -0.1270    0.0000 C   0  0  0  0  0  0  0  0  0  0  0  0
    6.3301    0.3730    0.0000 C   0  0  0  0  0  0  0  0  0  0  0  0
    4.5981   -0.6270    0.0000 C   0  0  0  0  0  0  0  0  0  0  0  0
    7.1962    0.8730    0.0000 C   0  0  0  0  0  0  0  0  0  0  0  0
    3.7321   -1.1270    0.0000 C   0  0  0  0  0  0  0  0  0  0  0  0
    2.8660   -1.6270    0.0000 C   0  0  0  0  0  0  0  0  0  0  0  0
    9.4651    1.5630    0.0000 H   0  0  0  0  0  0  0  0  0  0  0  0
    8.9282    2.4930    0.0000 H   0  0  0  0  0  0  0  0  0  0  0  0
  1 15  2  0  0  0  0
  1 16  2  0  0  0  0
  1 17  1  0  0  0  0
  1 21  1  0  0  0  0
  2 18  1  0  0  0  0
  3 18  1  0  0  0  0
  4 19  1  0  0  0  0
  5 19  1  0  0  0  0
  6 20  1  0  0  0  0
  7 20  1  0  0  0  0
  8 21  1  0  0  0  0
  9 21  1  0  0  0  0
 10 22  1  0  0  0  0
 11 22  1  0  0  0  0
 12 23  1  0  0  0  0
 13 23  1  0  0  0  0
 14 23  1  0  0  0  0
 17 24  1  0  0  0  0
 17 25  1  0  0  0  0
 18 19  1  0  0  0  0
 18 20  1  0  0  0  0
 19 21  1  0  0  0  0
 20 22  1  0  0  0  0
 22 23  1  0  0  0  0
M  END
> <PUBCHEM_COMPOUND_CID>
11603678

> <PUBCHEM_COMPOUND_CANONICALIZED>
1

> <PUBCHEM_CACTVS_COMPLEXITY>
556

> <PUBCHEM_CACTVS_HBOND_ACCEPTOR>
16

> <PUBCHEM_CACTVS_HBOND_DONOR>
1

> <PUBCHEM_CACTVS_ROTATABLE_BOND>
5

> <PUBCHEM_CACTVS_SUBSKEYS>
AAADcQBiMcBAAAAAAAAAAAAAAAAAAAAAAAAAAAAAAAAAAAAAAAAACQQQQAAACAAAQBAAAAAAAAIAAAAAAHBAAAAAAAAAAAAAAAAAAAIAAAAAAAAAAAAAAAEAAAAAAAAAAAAAAAAAAAAAAAAAAAAAAAAAAA==

> <PUBCHEM_IUPAC_OPENEYE_NAME>
1,1,2,2,3,3,4,4,5,5,6,6,6-tridecafluorohexane-1-sulfonamide

> <PUBCHEM_IUPAC_CAS_NAME>
1,1,2,2,3,3,4,4,5,5,6,6,6-tridecafluoro-1-hexanesulfonamide

> <PUBCHEM_IUPAC_NAME_MARKUP>
1,1,2,2,3,3,4,4,5,5,6,6,6-tridecafluorohexane-1-sulfonamide

> <PUBCHEM_IUPAC_NAME>
1,1,2,2,3,3,4,4,5,5,6,6,6-tridecafluorohexane-1-sulfonamide

> <PUBCHEM_IUPAC_SYSTEMATIC_NAME>
1,1,2,2,3,3,4,4,5,5,6,6,6-tridecakis(fluoranyl)hexane-1-sulfonamide

> <PUBCHEM_IUPAC_TRADITIONAL_NAME>
1,1,2,2,3,3,4,4,5,5,6,6,6-tridecafluorohexane-1-sulfonamide

> <PUBCHEM_IUPAC_INCHI>
InChI=1S/C6H2F13NO2S/c7-1(8,3(11,12)5(15,16)17)2(9,10)4(13,14)6(18,19)23(20,21)22/h(H2,20,21,22)

> <PUBCHEM_IUPAC_INCHIKEY>
WDZLGCSJJWEQJO-UHFFFAOYSA-N

> <PUBCHEM_XLOGP3_AA>
3.5

> <PUBCHEM_EXACT_MASS>
398.9598656

> <PUBCHEM_MOLECULAR_FORMULA>
C6H2F13NO2S

> <PUBCHEM_MOLECULAR_WEIGHT>
399.13

> <PUBCHEM_SMILES>
C(C(C(C(F)(F)S(=O)(=O)N)(F)F)(F)F)(C(C(F)(F)F)(F)F)(F)F

> <PUBCHEM_CONNECTIVITY_SMILES>
C(C(C(C(F)(F)S(=O)(=O)N)(F)F)(F)F)(C(C(F)(F)F)(F)F)(F)F

> <PUBCHEM_CACTVS_TPSA>
68.5

> <PUBCHEM_MONOISOTOPIC_WEIGHT>
398.9598656

> <PUBCHEM_TOTAL_CHARGE>
0

> <PUBCHEM_HEAVY_ATOM_COUNT>
23

> <PUBCHEM_ATOM_DEF_STEREO_COUNT>
0

> <PUBCHEM_ATOM_UDEF_STEREO_COUNT>
0

> <PUBCHEM_BOND_DEF_STEREO_COUNT>
0

> <PUBCHEM_BOND_UDEF_STEREO_COUNT>
0

> <PUBCHEM_ISOTOPIC_ATOM_COUNT>
0

> <PUBCHEM_COMPONENT_COUNT>
1

> <PUBCHEM_CACTVS_TAUTO_COUNT>
-1

> <PUBCHEM_COORDINATE_TYPE>
1
5
255

$$$$
