117291
  -OEChem-05122608492D

 66 66  0     1  0  0  0  0  0999 V2000
    8.0622   -3.5000    0.0000 Br  0  0  0  0  0  0  0  0  0  0  0  0
   11.5263   -1.5000    0.0000 Br  0  0  0  0  0  0  0  0  0  0  0  0
    9.7942   -4.5000    0.0000 Br  0  0  0  0  0  0  0  0  0  0  0  0
   11.5263   -3.5000    0.0000 Br  0  0  0  0  0  0  0  0  0  0  0  0
    7.1962   -2.0000    0.0000 O   0  0  0  0  0  0  0  0  0  0  0  0
   10.6603    0.0000    0.0000 O   0  0  0  0  0  0  0  0  0  0  0  0
    8.0622   -0.5000    0.0000 O   0  0  0  0  0  0  0  0  0  0  0  0
    8.9282    0.0000    0.0000 O   0  0  0  0  0  0  0  0  0  0  0  0
    5.4641   -2.0000    0.0000 C   0  0  3  0  0  0  0  0  0  0  0  0
   11.5263    1.5000    0.0000 C   0  0  3  0  0  0  0  0  0  0  0  0
    4.5981   -1.5000    0.0000 C   0  0  0  0  0  0  0  0  0  0  0  0
   11.5263    2.5000    0.0000 C   0  0  0  0  0  0  0  0  0  0  0  0
    5.4641   -3.0000    0.0000 C   0  0  0  0  0  0  0  0  0  0  0  0
   12.3923    1.0000    0.0000 C   0  0  0  0  0  0  0  0  0  0  0  0
    3.7321   -2.0000    0.0000 C   0  0  0  0  0  0  0  0  0  0  0  0
   12.3923    3.0000    0.0000 C   0  0  0  0  0  0  0  0  0  0  0  0
    6.3301   -1.5000    0.0000 C   0  0  0  0  0  0  0  0  0  0  0  0
   10.6603    1.0000    0.0000 C   0  0  0  0  0  0  0  0  0  0  0  0
    2.8660   -1.5000    0.0000 C   0  0  0  0  0  0  0  0  0  0  0  0
   12.3923    4.0000    0.0000 C   0  0  0  0  0  0  0  0  0  0  0  0
    4.5981   -3.5000    0.0000 C   0  0  0  0  0  0  0  0  0  0  0  0
   13.2583    1.5000    0.0000 C   0  0  0  0  0  0  0  0  0  0  0  0
    2.0000   -2.0000    0.0000 C   0  0  0  0  0  0  0  0  0  0  0  0
   13.2583    4.5000    0.0000 C   0  0  0  0  0  0  0  0  0  0  0  0
    8.0622   -1.5000    0.0000 C   0  0  0  0  0  0  0  0  0  0  0  0
    9.7942   -0.5000    0.0000 C   0  0  0  0  0  0  0  0  0  0  0  0
    8.9282   -2.0000    0.0000 C   0  0  0  0  0  0  0  0  0  0  0  0
    9.7942   -1.5000    0.0000 C   0  0  0  0  0  0  0  0  0  0  0  0
    8.9282   -3.0000    0.0000 C   0  0  0  0  0  0  0  0  0  0  0  0
   10.6603   -2.0000    0.0000 C   0  0  0  0  0  0  0  0  0  0  0  0
    9.7942   -3.5000    0.0000 C   0  0  0  0  0  0  0  0  0  0  0  0
   10.6603   -3.0000    0.0000 C   0  0  0  0  0  0  0  0  0  0  0  0
    5.4641   -1.3800    0.0000 H   0  0  0  0  0  0  0  0  0  0  0  0
   12.0632    1.8100    0.0000 H   0  0  0  0  0  0  0  0  0  0  0  0
    4.9966   -1.0251    0.0000 H   0  0  0  0  0  0  0  0  0  0  0  0
    4.1996   -1.0251    0.0000 H   0  0  0  0  0  0  0  0  0  0  0  0
   11.3142    3.0826    0.0000 H   0  0  0  0  0  0  0  0  0  0  0  0
   10.9157    2.3923    0.0000 H   0  0  0  0  0  0  0  0  0  0  0  0
    5.6762   -3.5826    0.0000 H   0  0  0  0  0  0  0  0  0  0  0  0
    6.0747   -2.8923    0.0000 H   0  0  0  0  0  0  0  0  0  0  0  0
   11.9938    0.5251    0.0000 H   0  0  0  0  0  0  0  0  0  0  0  0
   12.7908    0.5251    0.0000 H   0  0  0  0  0  0  0  0  0  0  0  0
    3.3335   -2.4750    0.0000 H   0  0  0  0  0  0  0  0  0  0  0  0
    4.1306   -2.4750    0.0000 H   0  0  0  0  0  0  0  0  0  0  0  0
   12.6044    2.4174    0.0000 H   0  0  0  0  0  0  0  0  0  0  0  0
   13.0029    3.1077    0.0000 H   0  0  0  0  0  0  0  0  0  0  0  0
    6.7287   -1.0251    0.0000 H   0  0  0  0  0  0  0  0  0  0  0  0
    5.9316   -1.0251    0.0000 H   0  0  0  0  0  0  0  0  0  0  0  0
   10.4482    1.5826    0.0000 H   0  0  0  0  0  0  0  0  0  0  0  0
   10.0497    0.8923    0.0000 H   0  0  0  0  0  0  0  0  0  0  0  0
    3.2646   -1.0251    0.0000 H   0  0  0  0  0  0  0  0  0  0  0  0
    2.4675   -1.0251    0.0000 H   0  0  0  0  0  0  0  0  0  0  0  0
   12.1803    4.5826    0.0000 H   0  0  0  0  0  0  0  0  0  0  0  0
   11.7817    3.8923    0.0000 H   0  0  0  0  0  0  0  0  0  0  0  0
    4.2881   -2.9631    0.0000 H   0  0  0  0  0  0  0  0  0  0  0  0
    4.0611   -3.8100    0.0000 H   0  0  0  0  0  0  0  0  0  0  0  0
    4.9081   -4.0369    0.0000 H   0  0  0  0  0  0  0  0  0  0  0  0
   13.5683    0.9631    0.0000 H   0  0  0  0  0  0  0  0  0  0  0  0
   13.7953    1.8100    0.0000 H   0  0  0  0  0  0  0  0  0  0  0  0
   12.9483    2.0369    0.0000 H   0  0  0  0  0  0  0  0  0  0  0  0
    1.6900   -1.4631    0.0000 H   0  0  0  0  0  0  0  0  0  0  0  0
    1.4631   -2.3100    0.0000 H   0  0  0  0  0  0  0  0  0  0  0  0
    2.3100   -2.5369    0.0000 H   0  0  0  0  0  0  0  0  0  0  0  0
   13.5683    3.9631    0.0000 H   0  0  0  0  0  0  0  0  0  0  0  0
   13.7953    4.8100    0.0000 H   0  0  0  0  0  0  0  0  0  0  0  0
   12.9483    5.0369    0.0000 H   0  0  0  0  0  0  0  0  0  0  0  0
  1 29  1  0  0  0  0
  2 30  1  0  0  0  0
  3 31  1  0  0  0  0
  4 32  1  0  0  0  0
  5 17  1  0  0  0  0
  5 25  1  0  0  0  0
  6 18  1  0  0  0  0
  6 26  1  0  0  0  0
  7 25  2  0  0  0  0
  8 26  2  0  0  0  0
  9 11  1  0  0  0  0
  9 13  1  0  0  0  0
  9 17  1  0  0  0  0
  9 33  1  0  0  0  0
 10 12  1  0  0  0  0
 10 14  1  0  0  0  0
 10 18  1  0  0  0  0
 10 34  1  0  0  0  0
 11 15  1  0  0  0  0
 11 35  1  0  0  0  0
 11 36  1  0  0  0  0
 12 16  1  0  0  0  0
 12 37  1  0  0  0  0
 12 38  1  0  0  0  0
 13 21  1  0  0  0  0
 13 39  1  0  0  0  0
 13 40  1  0  0  0  0
 14 22  1  0  0  0  0
 14 41  1  0  0  0  0
 14 42  1  0  0  0  0
 15 19  1  0  0  0  0
 15 43  1  0  0  0  0
 15 44  1  0  0  0  0
 16 20  1  0  0  0  0
 16 45  1  0  0  0  0
 16 46  1  0  0  0  0
 17 47  1  0  0  0  0
 17 48  1  0  0  0  0
 18 49  1  0  0  0  0
 18 50  1  0  0  0  0
 19 23  1  0  0  0  0
 19 51  1  0  0  0  0
 19 52  1  0  0  0  0
 20 24  1  0  0  0  0
 20 53  1  0  0  0  0
 20 54  1  0  0  0  0
 21 55  1  0  0  0  0
 21 56  1  0  0  0  0
 21 57  1  0  0  0  0
 22 58  1  0  0  0  0
 22 59  1  0  0  0  0
 22 60  1  0  0  0  0
 23 61  1  0  0  0  0
 23 62  1  0  0  0  0
 23 63  1  0  0  0  0
 24 64  1  0  0  0  0
 24 65  1  0  0  0  0
 24 66  1  0  0  0  0
 25 27  1  0  0  0  0
 26 28  1  0  0  0  0
 27 28  2  0  0  0  0
 27 29  1  0  0  0  0
 28 30  1  0  0  0  0
 29 31  2  0  0  0  0
 30 32  2  0  0  0  0
 31 32  1  0  0  0  0
M  END
> <PUBCHEM_COMPOUND_CID>
117291

> <PUBCHEM_COMPOUND_CANONICALIZED>
1

> <PUBCHEM_CACTVS_COMPLEXITY>
514

> <PUBCHEM_CACTVS_HBOND_ACCEPTOR>
4

> <PUBCHEM_CACTVS_HBOND_DONOR>
0

> <PUBCHEM_CACTVS_ROTATABLE_BOND>
16

> <PUBCHEM_CACTVS_SUBSKEYS>
AAADcfB4OAAAHAAAAAAAAAAAAAAAAAAAAAAwAAAAAAAAAAABAAAAGgBAAAABrQCgmAICCIAABACIAgDQCAACAAAkAAQAiAEACOgIJjKANBiCMQAkwAEIqxfLyKCOggAEEAAwgAEEAAggAGEAAgAAAAAAAA==

> <PUBCHEM_IUPAC_OPENEYE_NAME>
bis(2-ethylhexyl) 3,4,5,6-tetrabromobenzene-1,2-dicarboxylate

> <PUBCHEM_IUPAC_CAS_NAME>
3,4,5,6-tetrabromobenzene-1,2-dicarboxylic acid bis(2-ethylhexyl) ester

> <PUBCHEM_IUPAC_NAME_MARKUP>
bis(2-ethylhexyl) 3,4,5,6-tetrabromobenzene-1,2-dicarboxylate

> <PUBCHEM_IUPAC_NAME>
bis(2-ethylhexyl) 3,4,5,6-tetrabromobenzene-1,2-dicarboxylate

> <PUBCHEM_IUPAC_SYSTEMATIC_NAME>
bis(2-ethylhexyl) 3,4,5,6-tetrakis(bromanyl)benzene-1,2-dicarboxylate

> <PUBCHEM_IUPAC_TRADITIONAL_NAME>
3,4,5,6-tetrabromobenzene-1,2-dicarboxylic acid bis(2-ethylhexyl) ester

> <PUBCHEM_IUPAC_INCHI>
InChI=1S/C24H34Br4O4/c1-5-9-11-15(7-3)13-31-23(29)17-18(20(26)22(28)21(27)19(17)25)24(30)32-14-16(8-4)12-10-6-2/h15-16H,5-14H2,1-4H3

> <PUBCHEM_IUPAC_INCHIKEY>
UUEDINPOVKWVAZ-UHFFFAOYSA-N

> <PUBCHEM_XLOGP3_AA>
10.6

> <PUBCHEM_EXACT_MASS>
705.91496

> <PUBCHEM_MOLECULAR_FORMULA>
C24H34Br4O4

> <PUBCHEM_MOLECULAR_WEIGHT>
706.1

> <PUBCHEM_SMILES>
CCCCC(CC)COC(=O)C1=C(C(=C(C(=C1Br)Br)Br)Br)C(=O)OCC(CC)CCCC

> <PUBCHEM_CONNECTIVITY_SMILES>
CCCCC(CC)COC(=O)C1=C(C(=C(C(=C1Br)Br)Br)Br)C(=O)OCC(CC)CCCC

> <PUBCHEM_CACTVS_TPSA>
52.6

> <PUBCHEM_MONOISOTOPIC_WEIGHT>
701.91906

> <PUBCHEM_TOTAL_CHARGE>
0

> <PUBCHEM_HEAVY_ATOM_COUNT>
32

> <PUBCHEM_ATOM_DEF_STEREO_COUNT>
0

> <PUBCHEM_ATOM_UDEF_STEREO_COUNT>
2

> <PUBCHEM_BOND_DEF_STEREO_COUNT>
0

> <PUBCHEM_BOND_UDEF_STEREO_COUNT>
0

> <PUBCHEM_ISOTOPIC_ATOM_COUNT>
0

> <PUBCHEM_COMPONENT_COUNT>
1

> <PUBCHEM_CACTVS_TAUTO_COUNT>
-1

> <PUBCHEM_COORDINATE_TYPE>
1
5
255

> <PUBCHEM_BONDANNOTATIONS>
10  14  3
27  28  8
27  29  8
28  30  8
29  31  8
30  32  8
31  32  8
9  13  3

$$$$
