117488
  -OEChem-01092608272D

 97 96  0     0  0  0  0  0  0999 V2000
   10.6603    3.0000    0.0000 P   0  0  0  0  0  0  0  0  0  0  0  0
   11.5263    3.5000    0.0000 O   0  0  0  0  0  0  0  0  0  0  0  0
    9.7942    3.5000    0.0000 O   0  0  0  0  0  0  0  0  0  0  0  0
   10.6603    2.0000    0.0000 O   0  0  0  0  0  0  0  0  0  0  0  0
   16.7224    3.5000    0.0000 C   0  0  0  0  0  0  0  0  0  0  0  0
    4.5981    3.5000    0.0000 C   0  0  0  0  0  0  0  0  0  0  0  0
    8.0622   -2.5000    0.0000 C   0  0  0  0  0  0  0  0  0  0  0  0
   15.8564    3.0000    0.0000 C   0  0  0  0  0  0  0  0  0  0  0  0
    5.4641    3.0000    0.0000 C   0  0  0  0  0  0  0  0  0  0  0  0
    8.0622   -1.5000    0.0000 C   0  0  0  0  0  0  0  0  0  0  0  0
   17.5885    3.0000    0.0000 C   0  0  0  0  0  0  0  0  0  0  0  0
    3.7321    3.0000    0.0000 C   0  0  0  0  0  0  0  0  0  0  0  0
    7.1962   -3.0000    0.0000 C   0  0  0  0  0  0  0  0  0  0  0  0
   14.9904    3.5000    0.0000 C   0  0  0  0  0  0  0  0  0  0  0  0
    6.3301    3.5000    0.0000 C   0  0  0  0  0  0  0  0  0  0  0  0
    8.9282   -1.0000    0.0000 C   0  0  0  0  0  0  0  0  0  0  0  0
   18.4545    3.5000    0.0000 C   0  0  0  0  0  0  0  0  0  0  0  0
    2.8660    3.5000    0.0000 C   0  0  0  0  0  0  0  0  0  0  0  0
    7.1962   -4.0000    0.0000 C   0  0  0  0  0  0  0  0  0  0  0  0
   14.1244    3.0000    0.0000 C   0  0  0  0  0  0  0  0  0  0  0  0
    7.1962    3.0000    0.0000 C   0  0  0  0  0  0  0  0  0  0  0  0
    8.9282    0.0000    0.0000 C   0  0  0  0  0  0  0  0  0  0  0  0
   13.2583    3.5000    0.0000 C   0  0  0  0  0  0  0  0  0  0  0  0
    8.0622    3.5000    0.0000 C   0  0  0  0  0  0  0  0  0  0  0  0
    9.7942    0.5000    0.0000 C   0  0  0  0  0  0  0  0  0  0  0  0
   19.3205    3.0000    0.0000 C   0  0  0  0  0  0  0  0  0  0  0  0
   18.4545    4.5000    0.0000 C   0  0  0  0  0  0  0  0  0  0  0  0
    2.0000    3.0000    0.0000 C   0  0  0  0  0  0  0  0  0  0  0  0
    2.8660    4.5000    0.0000 C   0  0  0  0  0  0  0  0  0  0  0  0
    6.3301   -4.5000    0.0000 C   0  0  0  0  0  0  0  0  0  0  0  0
    8.0622   -4.5000    0.0000 C   0  0  0  0  0  0  0  0  0  0  0  0
   12.3923    3.0000    0.0000 C   0  0  0  0  0  0  0  0  0  0  0  0
    8.9282    3.0000    0.0000 C   0  0  0  0  0  0  0  0  0  0  0  0
    9.7942    1.5000    0.0000 C   0  0  0  0  0  0  0  0  0  0  0  0
   17.1210    3.9750    0.0000 H   0  0  0  0  0  0  0  0  0  0  0  0
   16.3239    3.9750    0.0000 H   0  0  0  0  0  0  0  0  0  0  0  0
    4.9966    3.9750    0.0000 H   0  0  0  0  0  0  0  0  0  0  0  0
    4.1996    3.9750    0.0000 H   0  0  0  0  0  0  0  0  0  0  0  0
    8.2742   -3.0826    0.0000 H   0  0  0  0  0  0  0  0  0  0  0  0
    8.6728   -2.3923    0.0000 H   0  0  0  0  0  0  0  0  0  0  0  0
   15.4579    2.5251    0.0000 H   0  0  0  0  0  0  0  0  0  0  0  0
   16.2549    2.5251    0.0000 H   0  0  0  0  0  0  0  0  0  0  0  0
    5.0656    2.5251    0.0000 H   0  0  0  0  0  0  0  0  0  0  0  0
    5.8626    2.5251    0.0000 H   0  0  0  0  0  0  0  0  0  0  0  0
    7.8501   -0.9174    0.0000 H   0  0  0  0  0  0  0  0  0  0  0  0
    7.4516   -1.6077    0.0000 H   0  0  0  0  0  0  0  0  0  0  0  0
   17.1899    2.5251    0.0000 H   0  0  0  0  0  0  0  0  0  0  0  0
   17.9870    2.5251    0.0000 H   0  0  0  0  0  0  0  0  0  0  0  0
    3.3335    2.5251    0.0000 H   0  0  0  0  0  0  0  0  0  0  0  0
    4.1306    2.5251    0.0000 H   0  0  0  0  0  0  0  0  0  0  0  0
    6.9841   -2.4174    0.0000 H   0  0  0  0  0  0  0  0  0  0  0  0
    6.5856   -3.1077    0.0000 H   0  0  0  0  0  0  0  0  0  0  0  0
   15.3889    3.9750    0.0000 H   0  0  0  0  0  0  0  0  0  0  0  0
   14.5919    3.9750    0.0000 H   0  0  0  0  0  0  0  0  0  0  0  0
    6.7287    3.9750    0.0000 H   0  0  0  0  0  0  0  0  0  0  0  0
    5.9316    3.9750    0.0000 H   0  0  0  0  0  0  0  0  0  0  0  0
    9.1403   -1.5826    0.0000 H   0  0  0  0  0  0  0  0  0  0  0  0
    9.5388   -0.8923    0.0000 H   0  0  0  0  0  0  0  0  0  0  0  0
   18.4545    2.8800    0.0000 H   0  0  0  0  0  0  0  0  0  0  0  0
    2.8660    2.8800    0.0000 H   0  0  0  0  0  0  0  0  0  0  0  0
    6.6592   -3.6900    0.0000 H   0  0  0  0  0  0  0  0  0  0  0  0
   13.7258    2.5251    0.0000 H   0  0  0  0  0  0  0  0  0  0  0  0
   14.5229    2.5251    0.0000 H   0  0  0  0  0  0  0  0  0  0  0  0
    6.7976    2.5251    0.0000 H   0  0  0  0  0  0  0  0  0  0  0  0
    7.5947    2.5251    0.0000 H   0  0  0  0  0  0  0  0  0  0  0  0
    8.7162    0.5826    0.0000 H   0  0  0  0  0  0  0  0  0  0  0  0
    8.3176   -0.1077    0.0000 H   0  0  0  0  0  0  0  0  0  0  0  0
   13.6569    3.9750    0.0000 H   0  0  0  0  0  0  0  0  0  0  0  0
   12.8598    3.9750    0.0000 H   0  0  0  0  0  0  0  0  0  0  0  0
    8.4607    3.9750    0.0000 H   0  0  0  0  0  0  0  0  0  0  0  0
    7.6637    3.9750    0.0000 H   0  0  0  0  0  0  0  0  0  0  0  0
   10.0063   -0.0826    0.0000 H   0  0  0  0  0  0  0  0  0  0  0  0
   10.4048    0.6077    0.0000 H   0  0  0  0  0  0  0  0  0  0  0  0
   19.0105    2.4631    0.0000 H   0  0  0  0  0  0  0  0  0  0  0  0
   19.8574    2.6900    0.0000 H   0  0  0  0  0  0  0  0  0  0  0  0
   19.6305    3.5369    0.0000 H   0  0  0  0  0  0  0  0  0  0  0  0
   19.0745    4.5000    0.0000 H   0  0  0  0  0  0  0  0  0  0  0  0
   18.4545    5.1200    0.0000 H   0  0  0  0  0  0  0  0  0  0  0  0
   17.8345    4.5000    0.0000 H   0  0  0  0  0  0  0  0  0  0  0  0
    1.6900    3.5369    0.0000 H   0  0  0  0  0  0  0  0  0  0  0  0
    1.4631    2.6900    0.0000 H   0  0  0  0  0  0  0  0  0  0  0  0
    2.3100    2.4631    0.0000 H   0  0  0  0  0  0  0  0  0  0  0  0
    3.4860    4.5000    0.0000 H   0  0  0  0  0  0  0  0  0  0  0  0
    2.8660    5.1200    0.0000 H   0  0  0  0  0  0  0  0  0  0  0  0
    2.2460    4.5000    0.0000 H   0  0  0  0  0  0  0  0  0  0  0  0
    6.0201   -3.9631    0.0000 H   0  0  0  0  0  0  0  0  0  0  0  0
    5.7932   -4.8100    0.0000 H   0  0  0  0  0  0  0  0  0  0  0  0
    6.6401   -5.0369    0.0000 H   0  0  0  0  0  0  0  0  0  0  0  0
    7.7522   -5.0369    0.0000 H   0  0  0  0  0  0  0  0  0  0  0  0
    8.5991   -4.8100    0.0000 H   0  0  0  0  0  0  0  0  0  0  0  0
    8.3722   -3.9631    0.0000 H   0  0  0  0  0  0  0  0  0  0  0  0
   11.9938    2.5251    0.0000 H   0  0  0  0  0  0  0  0  0  0  0  0
   12.7908    2.5251    0.0000 H   0  0  0  0  0  0  0  0  0  0  0  0
    8.5297    2.5251    0.0000 H   0  0  0  0  0  0  0  0  0  0  0  0
    9.3267    2.5251    0.0000 H   0  0  0  0  0  0  0  0  0  0  0  0
    9.5822    2.0826    0.0000 H   0  0  0  0  0  0  0  0  0  0  0  0
    9.1837    1.3923    0.0000 H   0  0  0  0  0  0  0  0  0  0  0  0
  1  2  1  0  0  0  0
  1  3  1  0  0  0  0
  1  4  1  0  0  0  0
  2 32  1  0  0  0  0
  3 33  1  0  0  0  0
  4 34  1  0  0  0  0
  5  8  1  0  0  0  0
  5 11  1  0  0  0  0
  5 35  1  0  0  0  0
  5 36  1  0  0  0  0
  6  9  1  0  0  0  0
  6 12  1  0  0  0  0
  6 37  1  0  0  0  0
  6 38  1  0  0  0  0
  7 10  1  0  0  0  0
  7 13  1  0  0  0  0
  7 39  1  0  0  0  0
  7 40  1  0  0  0  0
  8 14  1  0  0  0  0
  8 41  1  0  0  0  0
  8 42  1  0  0  0  0
  9 15  1  0  0  0  0
  9 43  1  0  0  0  0
  9 44  1  0  0  0  0
 10 16  1  0  0  0  0
 10 45  1  0  0  0  0
 10 46  1  0  0  0  0
 11 17  1  0  0  0  0
 11 47  1  0  0  0  0
 11 48  1  0  0  0  0
 12 18  1  0  0  0  0
 12 49  1  0  0  0  0
 12 50  1  0  0  0  0
 13 19  1  0  0  0  0
 13 51  1  0  0  0  0
 13 52  1  0  0  0  0
 14 20  1  0  0  0  0
 14 53  1  0  0  0  0
 14 54  1  0  0  0  0
 15 21  1  0  0  0  0
 15 55  1  0  0  0  0
 15 56  1  0  0  0  0
 16 22  1  0  0  0  0
 16 57  1  0  0  0  0
 16 58  1  0  0  0  0
 17 26  1  0  0  0  0
 17 27  1  0  0  0  0
 17 59  1  0  0  0  0
 18 28  1  0  0  0  0
 18 29  1  0  0  0  0
 18 60  1  0  0  0  0
 19 30  1  0  0  0  0
 19 31  1  0  0  0  0
 19 61  1  0  0  0  0
 20 23  1  0  0  0  0
 20 62  1  0  0  0  0
 20 63  1  0  0  0  0
 21 24  1  0  0  0  0
 21 64  1  0  0  0  0
 21 65  1  0  0  0  0
 22 25  1  0  0  0  0
 22 66  1  0  0  0  0
 22 67  1  0  0  0  0
 23 32  1  0  0  0  0
 23 68  1  0  0  0  0
 23 69  1  0  0  0  0
 24 33  1  0  0  0  0
 24 70  1  0  0  0  0
 24 71  1  0  0  0  0
 25 34  1  0  0  0  0
 25 72  1  0  0  0  0
 25 73  1  0  0  0  0
 26 74  1  0  0  0  0
 26 75  1  0  0  0  0
 26 76  1  0  0  0  0
 27 77  1  0  0  0  0
 27 78  1  0  0  0  0
 27 79  1  0  0  0  0
 28 80  1  0  0  0  0
 28 81  1  0  0  0  0
 28 82  1  0  0  0  0
 29 83  1  0  0  0  0
 29 84  1  0  0  0  0
 29 85  1  0  0  0  0
 30 86  1  0  0  0  0
 30 87  1  0  0  0  0
 30 88  1  0  0  0  0
 31 89  1  0  0  0  0
 31 90  1  0  0  0  0
 31 91  1  0  0  0  0
 32 92  1  0  0  0  0
 32 93  1  0  0  0  0
 33 94  1  0  0  0  0
 33 95  1  0  0  0  0
 34 96  1  0  0  0  0
 34 97  1  0  0  0  0
M  END
> <PUBCHEM_COMPOUND_CID>
117488

> <PUBCHEM_COMPOUND_CANONICALIZED>
1

> <PUBCHEM_CACTVS_COMPLEXITY>
330

> <PUBCHEM_CACTVS_HBOND_ACCEPTOR>
3

> <PUBCHEM_CACTVS_HBOND_DONOR>
0

> <PUBCHEM_CACTVS_ROTATABLE_BOND>
27

> <PUBCHEM_CACTVS_SUBSKEYS>
AAADcfB4MAIAAAAAAAAAAAAAAAAAAAAAAAAAAAAAAAAAAAAAAAAAGgAAACAADQCggAICAAAAARAAAAAAAAAAAAAAAAAAAAAAAAAAAAIAAAAAAAAEAAAAAAGAwOAMAAAAAAAAAAAAAAAAAAAAAAAAAAAAAA==

> <PUBCHEM_IUPAC_OPENEYE_NAME>
tris(8-methylnonyl) phosphite

> <PUBCHEM_IUPAC_CAS_NAME>
phosphorous acid tris(8-methylnonyl) ester

> <PUBCHEM_IUPAC_NAME_MARKUP>
tris(8-methylnonyl) phosphite

> <PUBCHEM_IUPAC_NAME>
tris(8-methylnonyl) phosphite

> <PUBCHEM_IUPAC_SYSTEMATIC_NAME>
tris(8-methylnonyl) phosphite

> <PUBCHEM_IUPAC_TRADITIONAL_NAME>
phosphorous acid tris(8-methylnonyl) ester

> <PUBCHEM_IUPAC_INCHI>
InChI=1S/C30H63O3P/c1-28(2)22-16-10-7-13-19-25-31-34(32-26-20-14-8-11-17-23-29(3)4)33-27-21-15-9-12-18-24-30(5)6/h28-30H,7-27H2,1-6H3

> <PUBCHEM_IUPAC_INCHIKEY>
QEDNBHNWMHJNAB-UHFFFAOYSA-N

> <PUBCHEM_XLOGP3_AA>
12.7

> <PUBCHEM_EXACT_MASS>
502.45148287

> <PUBCHEM_MOLECULAR_FORMULA>
C30H63O3P

> <PUBCHEM_MOLECULAR_WEIGHT>
502.8

> <PUBCHEM_SMILES>
CC(C)CCCCCCCOP(OCCCCCCCC(C)C)OCCCCCCCC(C)C

> <PUBCHEM_CONNECTIVITY_SMILES>
CC(C)CCCCCCCOP(OCCCCCCCC(C)C)OCCCCCCCC(C)C

> <PUBCHEM_CACTVS_TPSA>
27.7

> <PUBCHEM_MONOISOTOPIC_WEIGHT>
502.45148287

> <PUBCHEM_TOTAL_CHARGE>
0

> <PUBCHEM_HEAVY_ATOM_COUNT>
34

> <PUBCHEM_ATOM_DEF_STEREO_COUNT>
0

> <PUBCHEM_ATOM_UDEF_STEREO_COUNT>
0

> <PUBCHEM_BOND_DEF_STEREO_COUNT>
0

> <PUBCHEM_BOND_UDEF_STEREO_COUNT>
0

> <PUBCHEM_ISOTOPIC_ATOM_COUNT>
0

> <PUBCHEM_COMPONENT_COUNT>
1

> <PUBCHEM_CACTVS_TAUTO_COUNT>
-1

> <PUBCHEM_COORDINATE_TYPE>
1
5
255

$$$$
