118327
  -OEChem-05122608022D

 49 51  0     1  0  0  0  0  0999 V2000
    6.2619   -1.7321    0.0000 O   0  0  0  0  0  0  0  0  0  0  0  0
    5.2619    0.0000    0.0000 N   0  0  0  0  0  0  0  0  0  0  0  0
    4.6783   -0.8047    0.0000 N   0  0  0  0  0  0  0  0  0  0  0  0
    4.6783    0.8047    0.0000 N   0  0  0  0  0  0  0  0  0  0  0  0
    8.2619    1.7321    0.0000 C   0  0  0  0  0  0  0  0  0  0  0  0
    7.7619    0.8660    0.0000 C   0  0  0  0  0  0  0  0  0  0  0  0
    8.2619   -1.7321    0.0000 C   0  0  3  0  0  0  0  0  0  0  0  0
    7.7619   -0.8660    0.0000 C   0  0  0  0  0  0  0  0  0  0  0  0
    8.2619    0.0000    0.0000 C   0  0  0  0  0  0  0  0  0  0  0  0
    8.7619    2.5981    0.0000 C   0  0  0  0  0  0  0  0  0  0  0  0
    9.1279    1.2321    0.0000 C   0  0  0  0  0  0  0  0  0  0  0  0
    7.3959    2.2321    0.0000 C   0  0  0  0  0  0  0  0  0  0  0  0
    6.7619    0.8660    0.0000 C   0  0  0  0  0  0  0  0  0  0  0  0
    6.7619   -0.8660    0.0000 C   0  0  0  0  0  0  0  0  0  0  0  0
    9.2619   -1.7321    0.0000 C   0  0  0  0  0  0  0  0  0  0  0  0
    6.2619    0.0000    0.0000 C   0  0  0  0  0  0  0  0  0  0  0  0
    7.7619   -2.5981    0.0000 C   0  0  0  0  0  0  0  0  0  0  0  0
    9.7619   -2.5981    0.0000 C   0  0  0  0  0  0  0  0  0  0  0  0
    3.7321   -0.5000    0.0000 C   0  0  0  0  0  0  0  0  0  0  0  0
    3.7321    0.5000    0.0000 C   0  0  0  0  0  0  0  0  0  0  0  0
    2.8660   -1.0000    0.0000 C   0  0  0  0  0  0  0  0  0  0  0  0
    2.8660    1.0000    0.0000 C   0  0  0  0  0  0  0  0  0  0  0  0
    2.0000   -0.5000    0.0000 C   0  0  0  0  0  0  0  0  0  0  0  0
    2.0000    0.5000    0.0000 C   0  0  0  0  0  0  0  0  0  0  0  0
    8.5719   -2.2690    0.0000 H   0  0  0  0  0  0  0  0  0  0  0  0
    8.8819    0.0000    0.0000 H   0  0  0  0  0  0  0  0  0  0  0  0
    9.2988    2.2881    0.0000 H   0  0  0  0  0  0  0  0  0  0  0  0
    9.0719    3.1350    0.0000 H   0  0  0  0  0  0  0  0  0  0  0  0
    8.2249    2.9081    0.0000 H   0  0  0  0  0  0  0  0  0  0  0  0
    8.8179    0.6951    0.0000 H   0  0  0  0  0  0  0  0  0  0  0  0
    9.6648    0.9221    0.0000 H   0  0  0  0  0  0  0  0  0  0  0  0
    9.4379    1.7690    0.0000 H   0  0  0  0  0  0  0  0  0  0  0  0
    7.7059    2.7690    0.0000 H   0  0  0  0  0  0  0  0  0  0  0  0
    6.8589    2.5421    0.0000 H   0  0  0  0  0  0  0  0  0  0  0  0
    7.0859    1.6951    0.0000 H   0  0  0  0  0  0  0  0  0  0  0  0
    6.4519    1.4030    0.0000 H   0  0  0  0  0  0  0  0  0  0  0  0
    9.8445   -1.5200    0.0000 H   0  0  0  0  0  0  0  0  0  0  0  0
    9.1542   -1.1215    0.0000 H   0  0  0  0  0  0  0  0  0  0  0  0
    7.2249   -2.2881    0.0000 H   0  0  0  0  0  0  0  0  0  0  0  0
    7.4519   -3.1350    0.0000 H   0  0  0  0  0  0  0  0  0  0  0  0
    8.2988   -2.9081    0.0000 H   0  0  0  0  0  0  0  0  0  0  0  0
    9.2249   -2.9081    0.0000 H   0  0  0  0  0  0  0  0  0  0  0  0
   10.0719   -3.1350    0.0000 H   0  0  0  0  0  0  0  0  0  0  0  0
   10.2988   -2.2881    0.0000 H   0  0  0  0  0  0  0  0  0  0  0  0
    6.5719   -2.2690    0.0000 H   0  0  0  0  0  0  0  0  0  0  0  0
    2.8660   -1.6200    0.0000 H   0  0  0  0  0  0  0  0  0  0  0  0
    2.8660    1.6200    0.0000 H   0  0  0  0  0  0  0  0  0  0  0  0
    1.4631   -0.8100    0.0000 H   0  0  0  0  0  0  0  0  0  0  0  0
    1.4631    0.8100    0.0000 H   0  0  0  0  0  0  0  0  0  0  0  0
  1 14  1  0  0  0  0
  1 45  1  0  0  0  0
  2  3  1  0  0  0  0
  2  4  1  0  0  0  0
  2 16  1  0  0  0  0
  3 19  2  0  0  0  0
  4 20  2  0  0  0  0
  5  6  1  0  0  0  0
  5 10  1  0  0  0  0
  5 11  1  0  0  0  0
  5 12  1  0  0  0  0
  6  9  2  0  0  0  0
  6 13  1  0  0  0  0
  7  8  1  0  0  0  0
  7 15  1  0  0  0  0
  7 17  1  0  0  0  0
  7 25  1  0  0  0  0
  8  9  1  0  0  0  0
  8 14  2  0  0  0  0
  9 26  1  0  0  0  0
 10 27  1  0  0  0  0
 10 28  1  0  0  0  0
 10 29  1  0  0  0  0
 11 30  1  0  0  0  0
 11 31  1  0  0  0  0
 11 32  1  0  0  0  0
 12 33  1  0  0  0  0
 12 34  1  0  0  0  0
 12 35  1  0  0  0  0
 13 16  2  0  0  0  0
 13 36  1  0  0  0  0
 14 16  1  0  0  0  0
 15 18  1  0  0  0  0
 15 37  1  0  0  0  0
 15 38  1  0  0  0  0
 17 39  1  0  0  0  0
 17 40  1  0  0  0  0
 17 41  1  0  0  0  0
 18 42  1  0  0  0  0
 18 43  1  0  0  0  0
 18 44  1  0  0  0  0
 19 20  1  0  0  0  0
 19 21  1  0  0  0  0
 20 22  1  0  0  0  0
 21 23  2  0  0  0  0
 21 46  1  0  0  0  0
 22 24  2  0  0  0  0
 22 47  1  0  0  0  0
 23 24  1  0  0  0  0
 23 48  1  0  0  0  0
 24 49  1  0  0  0  0
M  END
> <PUBCHEM_COMPOUND_CID>
118327

> <PUBCHEM_COMPOUND_CANONICALIZED>
1

> <PUBCHEM_CACTVS_COMPLEXITY>
408

> <PUBCHEM_CACTVS_HBOND_ACCEPTOR>
3

> <PUBCHEM_CACTVS_HBOND_DONOR>
1

> <PUBCHEM_CACTVS_ROTATABLE_BOND>
4

> <PUBCHEM_CACTVS_SUBSKEYS>
AAADceB7IAAAAAAAAAAAAAAAAAAAAWAAAAAwYAAAAAAAAFgB9AAAHgAICAAADwyBngAyxrAAAgCiAyRiQACSBAQgMgAYmCA1fJgKZqKSkZOAcABkyBEI2AeQwPAPoAACQAAIECBAAASAABAgQAAAAAAAAA==

> <PUBCHEM_IUPAC_OPENEYE_NAME>
2-(benzotriazol-2-yl)-4-tert-butyl-6-sec-butyl-phenol

> <PUBCHEM_IUPAC_CAS_NAME>
2-(2-benzotriazolyl)-6-butan-2-yl-4-tert-butylphenol

> <PUBCHEM_IUPAC_NAME_MARKUP>
2-(benzotriazol-2-yl)-6-butan-2-yl-4-<I>tert</I>-butylphenol

> <PUBCHEM_IUPAC_NAME>
2-(benzotriazol-2-yl)-6-butan-2-yl-4-tert-butylphenol

> <PUBCHEM_IUPAC_SYSTEMATIC_NAME>
2-(benzotriazol-2-yl)-6-butan-2-yl-4-tert-butyl-phenol

> <PUBCHEM_IUPAC_TRADITIONAL_NAME>
2-(benzotriazol-2-yl)-4-tert-butyl-6-sec-butyl-phenol

> <PUBCHEM_IUPAC_INCHI>
InChI=1S/C20H25N3O/c1-6-13(2)15-11-14(20(3,4)5)12-18(19(15)24)23-21-16-9-7-8-10-17(16)22-23/h7-13,24H,6H2,1-5H3

> <PUBCHEM_IUPAC_INCHIKEY>
RTNVDKBRTXEWQE-UHFFFAOYSA-N

> <PUBCHEM_XLOGP3_AA>
6.3

> <PUBCHEM_EXACT_MASS>
323.199762429

> <PUBCHEM_MOLECULAR_FORMULA>
C20H25N3O

> <PUBCHEM_MOLECULAR_WEIGHT>
323.4

> <PUBCHEM_SMILES>
CCC(C)C1=C(C(=CC(=C1)C(C)(C)C)N2N=C3C=CC=CC3=N2)O

> <PUBCHEM_CONNECTIVITY_SMILES>
CCC(C)C1=C(C(=CC(=C1)C(C)(C)C)N2N=C3C=CC=CC3=N2)O

> <PUBCHEM_CACTVS_TPSA>
50.9

> <PUBCHEM_MONOISOTOPIC_WEIGHT>
323.199762429

> <PUBCHEM_TOTAL_CHARGE>
0

> <PUBCHEM_HEAVY_ATOM_COUNT>
24

> <PUBCHEM_ATOM_DEF_STEREO_COUNT>
0

> <PUBCHEM_ATOM_UDEF_STEREO_COUNT>
1

> <PUBCHEM_BOND_DEF_STEREO_COUNT>
0

> <PUBCHEM_BOND_UDEF_STEREO_COUNT>
0

> <PUBCHEM_ISOTOPIC_ATOM_COUNT>
0

> <PUBCHEM_COMPONENT_COUNT>
1

> <PUBCHEM_CACTVS_TAUTO_COUNT>
-1

> <PUBCHEM_COORDINATE_TYPE>
1
5
255

> <PUBCHEM_BONDANNOTATIONS>
13  16  8
14  16  8
19  20  8
19  21  8
2  3  8
2  4  8
20  22  8
21  23  8
22  24  8
23  24  8
3  19  8
4  20  8
6  13  8
6  9  8
7  17  3
8  14  8
8  9  8

$$$$
