118688
  -OEChem-05122608272D

 29 28  0     1  0  0  0  0  0999 V2000
    6.3301    0.6830    0.0000 S   0  0  0  0  0  0  0  0  0  0  0  0
    4.9641    1.0490    0.0000 F   0  0  0  0  0  0  0  0  0  0  0  0
    5.9641   -0.6830    0.0000 F   0  0  0  0  0  0  0  0  0  0  0  0
    4.0981    0.5490    0.0000 F   0  0  0  0  0  0  0  0  0  0  0  0
    5.0981   -1.1830    0.0000 F   0  0  0  0  0  0  0  0  0  0  0  0
    3.2321    0.0490    0.0000 F   0  0  0  0  0  0  0  0  0  0  0  0
    4.2321   -1.6830    0.0000 F   0  0  0  0  0  0  0  0  0  0  0  0
    2.0000   -1.8170    0.0000 F   0  0  0  0  0  0  0  0  0  0  0  0
    2.3660   -0.4510    0.0000 F   0  0  0  0  0  0  0  0  0  0  0  0
    3.3660   -2.1830    0.0000 F   0  0  0  0  0  0  0  0  0  0  0  0
    6.8301   -0.1830    0.0000 O   0  0  0  0  0  0  0  0  0  0  0  0
    5.8301    1.5490    0.0000 O   0  0  0  0  0  0  0  0  0  0  0  0
    9.7942    0.6830    0.0000 O   0  0  0  0  0  0  0  0  0  0  0  0
    7.1962    1.1830    0.0000 N   0  0  3  0  0  0  0  0  0  0  0  0
    5.4641    0.1830    0.0000 C   0  0  0  0  0  0  0  0  0  0  0  0
    4.5981   -0.3170    0.0000 C   0  0  0  0  0  0  0  0  0  0  0  0
    3.7321   -0.8170    0.0000 C   0  0  0  0  0  0  0  0  0  0  0  0
    8.0622    0.6830    0.0000 C   0  0  0  0  0  0  0  0  0  0  0  0
    2.8660   -1.3170    0.0000 C   0  0  0  0  0  0  0  0  0  0  0  0
    7.1962    2.1830    0.0000 C   0  0  0  0  0  0  0  0  0  0  0  0
    8.9282    1.1830    0.0000 C   0  0  0  0  0  0  0  0  0  0  0  0
    7.6637    0.2081    0.0000 H   0  0  0  0  0  0  0  0  0  0  0  0
    8.4607    0.2081    0.0000 H   0  0  0  0  0  0  0  0  0  0  0  0
    7.8162    2.1830    0.0000 H   0  0  0  0  0  0  0  0  0  0  0  0
    7.1962    2.8030    0.0000 H   0  0  0  0  0  0  0  0  0  0  0  0
    6.5762    2.1830    0.0000 H   0  0  0  0  0  0  0  0  0  0  0  0
    9.3267    1.6580    0.0000 H   0  0  0  0  0  0  0  0  0  0  0  0
    8.5297    1.6580    0.0000 H   0  0  0  0  0  0  0  0  0  0  0  0
   10.3312    0.9930    0.0000 H   0  0  0  0  0  0  0  0  0  0  0  0
  1 11  2  0  0  0  0
  1 12  2  0  0  0  0
  1 14  1  0  0  0  0
  1 15  1  0  0  0  0
  2 15  1  0  0  0  0
  3 15  1  0  0  0  0
  4 16  1  0  0  0  0
  5 16  1  0  0  0  0
  6 17  1  0  0  0  0
  7 17  1  0  0  0  0
  8 19  1  0  0  0  0
  9 19  1  0  0  0  0
 10 19  1  0  0  0  0
 13 21  1  0  0  0  0
 13 29  1  0  0  0  0
 14 18  1  0  0  0  0
 14 20  1  0  0  0  0
 15 16  1  0  0  0  0
 16 17  1  0  0  0  0
 17 19  1  0  0  0  0
 18 21  1  0  0  0  0
 18 22  1  0  0  0  0
 18 23  1  0  0  0  0
 20 24  1  0  0  0  0
 20 25  1  0  0  0  0
 20 26  1  0  0  0  0
 21 27  1  0  0  0  0
 21 28  1  0  0  0  0
M  END
> <PUBCHEM_COMPOUND_CID>
118688

> <PUBCHEM_COMPOUND_CANONICALIZED>
1

> <PUBCHEM_CACTVS_COMPLEXITY>
467

> <PUBCHEM_CACTVS_HBOND_ACCEPTOR>
13

> <PUBCHEM_CACTVS_HBOND_DONOR>
1

> <PUBCHEM_CACTVS_ROTATABLE_BOND>
6

> <PUBCHEM_CACTVS_SUBSKEYS>
AAADccBiMcBAAAAAAAAAAAAAAAAAAAAAAAAAAAAAAAAAAAAAAAAAHwQASAAACADhwBYCAAIAAgIAAAAAAHBAAAAAAAAAAAAIAAACEAAAAAAAAAAAAAAQAAAAAAAAAAAAAAAAAAAAAAAAAAAAAAAAAAAAAA==

> <PUBCHEM_IUPAC_OPENEYE_NAME>
1,1,2,2,3,3,4,4,4-nonafluoro-N-(2-hydroxyethyl)-N-methyl-butane-1-sulfonamide

> <PUBCHEM_IUPAC_CAS_NAME>
1,1,2,2,3,3,4,4,4-nonafluoro-N-(2-hydroxyethyl)-N-methyl-1-butanesulfonamide

> <PUBCHEM_IUPAC_NAME_MARKUP>
1,1,2,2,3,3,4,4,4-nonafluoro-<I>N</I>-(2-hydroxyethyl)-<I>N</I>-methylbutane-1-sulfonamide

> <PUBCHEM_IUPAC_NAME>
1,1,2,2,3,3,4,4,4-nonafluoro-N-(2-hydroxyethyl)-N-methylbutane-1-sulfonamide

> <PUBCHEM_IUPAC_SYSTEMATIC_NAME>
1,1,2,2,3,3,4,4,4-nonakis(fluoranyl)-N-(2-hydroxyethyl)-N-methyl-butane-1-sulfonamide

> <PUBCHEM_IUPAC_TRADITIONAL_NAME>
1,1,2,2,3,3,4,4,4-nonafluoro-N-(2-hydroxyethyl)-N-methyl-butane-1-sulfonamide

> <PUBCHEM_IUPAC_INCHI>
InChI=1S/C7H8F9NO3S/c1-17(2-3-18)21(19,20)7(15,16)5(10,11)4(8,9)6(12,13)14/h18H,2-3H2,1H3

> <PUBCHEM_IUPAC_INCHIKEY>
DSRUAYIFDCHEEV-UHFFFAOYSA-N

> <PUBCHEM_XLOGP3_AA>
2.1

> <PUBCHEM_EXACT_MASS>
357.00811775

> <PUBCHEM_MOLECULAR_FORMULA>
C7H8F9NO3S

> <PUBCHEM_MOLECULAR_WEIGHT>
357.20

> <PUBCHEM_SMILES>
CN(CCO)S(=O)(=O)C(C(C(C(F)(F)F)(F)F)(F)F)(F)F

> <PUBCHEM_CONNECTIVITY_SMILES>
CN(CCO)S(=O)(=O)C(C(C(C(F)(F)F)(F)F)(F)F)(F)F

> <PUBCHEM_CACTVS_TPSA>
66

> <PUBCHEM_MONOISOTOPIC_WEIGHT>
357.00811775

> <PUBCHEM_TOTAL_CHARGE>
0

> <PUBCHEM_HEAVY_ATOM_COUNT>
21

> <PUBCHEM_ATOM_DEF_STEREO_COUNT>
0

> <PUBCHEM_ATOM_UDEF_STEREO_COUNT>
0

> <PUBCHEM_BOND_DEF_STEREO_COUNT>
0

> <PUBCHEM_BOND_UDEF_STEREO_COUNT>
0

> <PUBCHEM_ISOTOPIC_ATOM_COUNT>
0

> <PUBCHEM_COMPONENT_COUNT>
1

> <PUBCHEM_CACTVS_TAUTO_COUNT>
-1

> <PUBCHEM_COORDINATE_TYPE>
1
5
255

$$$$
