118871
  -OEChem-05122608092D

 43 46  0     0  0  0  0  0  0999 V2000
   12.0691    3.2287    0.0000 Cl  0  0  0  0  0  0  0  0  0  0  0  0
    7.2622   -1.7013    0.0000 O   0  0  0  0  0  0  0  0  0  0  0  0
    9.9020   -0.1064    0.0000 O   0  0  0  0  0  0  0  0  0  0  0  0
    8.9942   -1.7013    0.0000 O   0  0  0  0  0  0  0  0  0  0  0  0
    3.7320   -1.7254    0.0000 N   0  0  0  0  0  0  0  0  0  0  0  0
    9.0973    1.2875    0.0000 N   0  0  0  0  0  0  0  0  0  0  0  0
    4.5961   -1.2221    0.0000 C   0  0  0  0  0  0  0  0  0  0  0  0
    2.8641   -1.2287    0.0000 C   0  0  0  0  0  0  0  0  0  0  0  0
    3.7359   -2.7254    0.0000 C   0  0  0  0  0  0  0  0  0  0  0  0
    6.3961   -0.2013    0.0000 C   0  0  0  0  0  0  0  0  0  0  0  0
    6.3961   -1.2013    0.0000 C   0  0  0  0  0  0  0  0  0  0  0  0
    5.5022   -1.7359    0.0000 C   0  0  0  0  0  0  0  0  0  0  0  0
    4.5961   -0.1804    0.0000 C   0  0  0  0  0  0  0  0  0  0  0  0
    5.5022    0.3334    0.0000 C   0  0  0  0  0  0  0  0  0  0  0  0
    7.2622    0.2987    0.0000 C   0  0  0  0  0  0  0  0  0  0  0  0
    8.1282   -0.2013    0.0000 C   0  0  0  0  0  0  0  0  0  0  0  0
    2.0000   -1.7321    0.0000 C   0  0  0  0  0  0  0  0  0  0  0  0
    2.8718   -3.2287    0.0000 C   0  0  0  0  0  0  0  0  0  0  0  0
    8.9942    0.2987    0.0000 C   0  0  0  0  0  0  0  0  0  0  0  0
    8.1282   -1.2013    0.0000 C   0  0  0  0  0  0  0  0  0  0  0  0
   10.0691    1.4967    0.0000 C   0  0  0  0  0  0  0  0  0  0  0  0
   10.5691    0.6307    0.0000 C   0  0  0  0  0  0  0  0  0  0  0  0
   10.5691    2.3627    0.0000 C   0  0  0  0  0  0  0  0  0  0  0  0
   11.5691    0.6307    0.0000 C   0  0  0  0  0  0  0  0  0  0  0  0
   11.5691    2.3627    0.0000 C   0  0  0  0  0  0  0  0  0  0  0  0
   12.0691    1.4967    0.0000 C   0  0  0  0  0  0  0  0  0  0  0  0
    3.2608   -0.7523    0.0000 H   0  0  0  0  0  0  0  0  0  0  0  0
    2.4637   -0.7553    0.0000 H   0  0  0  0  0  0  0  0  0  0  0  0
    3.9502   -3.3072    0.0000 H   0  0  0  0  0  0  0  0  0  0  0  0
    4.3461   -2.6154    0.0000 H   0  0  0  0  0  0  0  0  0  0  0  0
    5.5094   -2.3559    0.0000 H   0  0  0  0  0  0  0  0  0  0  0  0
    4.0604    0.1316    0.0000 H   0  0  0  0  0  0  0  0  0  0  0  0
    5.5094    0.9534    0.0000 H   0  0  0  0  0  0  0  0  0  0  0  0
    7.2622    0.9187    0.0000 H   0  0  0  0  0  0  0  0  0  0  0  0
    1.6879   -1.1963    0.0000 H   0  0  0  0  0  0  0  0  0  0  0  0
    1.4643   -2.0441    0.0000 H   0  0  0  0  0  0  0  0  0  0  0  0
    2.3121   -2.2678    0.0000 H   0  0  0  0  0  0  0  0  0  0  0  0
    2.5597   -2.6930    0.0000 H   0  0  0  0  0  0  0  0  0  0  0  0
    2.3361   -3.5408    0.0000 H   0  0  0  0  0  0  0  0  0  0  0  0
    3.1839   -3.7645    0.0000 H   0  0  0  0  0  0  0  0  0  0  0  0
   10.2591    2.8996    0.0000 H   0  0  0  0  0  0  0  0  0  0  0  0
   11.8791    0.0937    0.0000 H   0  0  0  0  0  0  0  0  0  0  0  0
   12.6891    1.4967    0.0000 H   0  0  0  0  0  0  0  0  0  0  0  0
  1 25  1  0  0  0  0
  2 11  1  0  0  0  0
  2 20  1  0  0  0  0
  3 19  1  0  0  0  0
  3 22  1  0  0  0  0
  4 20  2  0  0  0  0
  5  7  1  0  0  0  0
  5  8  1  0  0  0  0
  5  9  1  0  0  0  0
  6 19  2  0  0  0  0
  6 21  1  0  0  0  0
  7 12  2  0  0  0  0
  7 13  1  0  0  0  0
  8 17  1  0  0  0  0
  8 27  1  0  0  0  0
  8 28  1  0  0  0  0
  9 18  1  0  0  0  0
  9 29  1  0  0  0  0
  9 30  1  0  0  0  0
 10 11  2  0  0  0  0
 10 14  1  0  0  0  0
 10 15  1  0  0  0  0
 11 12  1  0  0  0  0
 12 31  1  0  0  0  0
 13 14  2  0  0  0  0
 13 32  1  0  0  0  0
 14 33  1  0  0  0  0
 15 16  2  0  0  0  0
 15 34  1  0  0  0  0
 16 19  1  0  0  0  0
 16 20  1  0  0  0  0
 17 35  1  0  0  0  0
 17 36  1  0  0  0  0
 17 37  1  0  0  0  0
 18 38  1  0  0  0  0
 18 39  1  0  0  0  0
 18 40  1  0  0  0  0
 21 22  2  0  0  0  0
 21 23  1  0  0  0  0
 22 24  1  0  0  0  0
 23 25  2  0  0  0  0
 23 41  1  0  0  0  0
 24 26  2  0  0  0  0
 24 42  1  0  0  0  0
 25 26  1  0  0  0  0
 26 43  1  0  0  0  0
M  END
> <PUBCHEM_COMPOUND_CID>
118871

> <PUBCHEM_COMPOUND_CANONICALIZED>
1

> <PUBCHEM_CACTVS_COMPLEXITY>
565

> <PUBCHEM_CACTVS_HBOND_ACCEPTOR>
5

> <PUBCHEM_CACTVS_HBOND_DONOR>
0

> <PUBCHEM_CACTVS_ROTATABLE_BOND>
4

> <PUBCHEM_CACTVS_SUBSKEYS>
AAADceB7MAAEAAAAAAAAAAAAAAAAAWAAAAAwYIAAAAAAAFiB9AAAHgIAAAAADA7BniQyzrMIFECoA6XyXASCiCAvZyAImCG/btgOJr7Nt7uPOyjn5BnY6YeY2CMOCCAAAgIIEAAQQAAEBBAgAAAAAAAAAA==

> <PUBCHEM_IUPAC_OPENEYE_NAME>
3-(5-chloro-1,3-benzoxazol-2-yl)-7-(diethylamino)chromen-2-one

> <PUBCHEM_IUPAC_CAS_NAME>
3-(5-chloro-1,3-benzoxazol-2-yl)-7-(diethylamino)-1-benzopyran-2-one

> <PUBCHEM_IUPAC_NAME_MARKUP>
3-(5-chloro-1,3-benzoxazol-2-yl)-7-(diethylamino)chromen-2-one

> <PUBCHEM_IUPAC_NAME>
3-(5-chloro-1,3-benzoxazol-2-yl)-7-(diethylamino)chromen-2-one

> <PUBCHEM_IUPAC_SYSTEMATIC_NAME>
3-(5-chloranyl-1,3-benzoxazol-2-yl)-7-(diethylamino)chromen-2-one

> <PUBCHEM_IUPAC_TRADITIONAL_NAME>
3-(5-chloro-1,3-benzoxazol-2-yl)-7-(diethylamino)coumarin

> <PUBCHEM_IUPAC_INCHI>
InChI=1S/C20H17ClN2O3/c1-3-23(4-2)14-7-5-12-9-15(20(24)26-18(12)11-14)19-22-16-10-13(21)6-8-17(16)25-19/h5-11H,3-4H2,1-2H3

> <PUBCHEM_IUPAC_INCHIKEY>
CBNSBRVOBGWOBM-UHFFFAOYSA-N

> <PUBCHEM_XLOGP3_AA>
4.9

> <PUBCHEM_EXACT_MASS>
368.0927701

> <PUBCHEM_MOLECULAR_FORMULA>
C20H17ClN2O3

> <PUBCHEM_MOLECULAR_WEIGHT>
368.8

> <PUBCHEM_SMILES>
CCN(CC)C1=CC2=C(C=C1)C=C(C(=O)O2)C3=NC4=C(O3)C=CC(=C4)Cl

> <PUBCHEM_CONNECTIVITY_SMILES>
CCN(CC)C1=CC2=C(C=C1)C=C(C(=O)O2)C3=NC4=C(O3)C=CC(=C4)Cl

> <PUBCHEM_CACTVS_TPSA>
55.6

> <PUBCHEM_MONOISOTOPIC_WEIGHT>
368.0927701

> <PUBCHEM_TOTAL_CHARGE>
0

> <PUBCHEM_HEAVY_ATOM_COUNT>
26

> <PUBCHEM_ATOM_DEF_STEREO_COUNT>
0

> <PUBCHEM_ATOM_UDEF_STEREO_COUNT>
0

> <PUBCHEM_BOND_DEF_STEREO_COUNT>
0

> <PUBCHEM_BOND_UDEF_STEREO_COUNT>
0

> <PUBCHEM_ISOTOPIC_ATOM_COUNT>
0

> <PUBCHEM_COMPONENT_COUNT>
1

> <PUBCHEM_CACTVS_TAUTO_COUNT>
-1

> <PUBCHEM_COORDINATE_TYPE>
1
5
255

> <PUBCHEM_BONDANNOTATIONS>
10  11  8
10  14  8
10  15  8
11  12  8
13  14  8
15  16  8
16  20  8
2  11  8
2  20  8
21  22  8
21  23  8
22  24  8
23  25  8
24  26  8
25  26  8
3  19  8
3  22  8
6  19  8
6  21  8
7  12  8
7  13  8

$$$$
