119361
  -OEChem-08032615132D

 35 37  0     1  0  0  0  0  0999 V2000
    6.7709    0.9125    0.0000 Cl  0  0  0  0  0  0  0  0  0  0  0  0
    2.4408   -0.5875    0.0000 Cl  0  0  0  0  0  0  0  0  0  0  0  0
    5.5388    0.0465    0.0000 O   0  0  0  0  0  0  0  0  0  0  0  0
    3.5388    1.7785    0.0000 N   0  0  0  0  0  0  0  0  0  0  0  0
    2.9511    2.5875    0.0000 N   0  0  0  0  0  0  0  0  0  0  0  0
    2.0000    1.2785    0.0000 N   0  0  0  0  0  0  0  0  0  0  0  0
    5.9049    1.4125    0.0000 C   0  0  0  0  0  0  0  0  0  0  0  0
    5.4049    2.2785    0.0000 C   0  0  0  0  0  0  0  0  0  0  0  0
    6.4049    2.2785    0.0000 C   0  0  0  0  0  0  0  0  0  0  0  0
    5.0388    0.9125    0.0000 C   0  0  3  0  0  0  0  0  0  0  0  0
    4.1728    0.4125    0.0000 C   0  0  0  0  0  0  0  0  0  0  0  0
    4.5388    1.7785    0.0000 C   0  0  0  0  0  0  0  0  0  0  0  0
    4.1728   -0.5875    0.0000 C   0  0  0  0  0  0  0  0  0  0  0  0
    3.3068   -1.0875    0.0000 C   0  0  0  0  0  0  0  0  0  0  0  0
    5.0388   -1.0875    0.0000 C   0  0  0  0  0  0  0  0  0  0  0  0
    2.9511    0.9695    0.0000 C   0  0  0  0  0  0  0  0  0  0  0  0
    3.3068   -2.0875    0.0000 C   0  0  0  0  0  0  0  0  0  0  0  0
    5.0388   -2.0875    0.0000 C   0  0  0  0  0  0  0  0  0  0  0  0
    2.0000    2.2785    0.0000 C   0  0  0  0  0  0  0  0  0  0  0  0
    4.1728   -2.5875    0.0000 C   0  0  0  0  0  0  0  0  0  0  0  0
    5.2972    2.8891    0.0000 H   0  0  0  0  0  0  0  0  0  0  0  0
    4.8223    2.0665    0.0000 H   0  0  0  0  0  0  0  0  0  0  0  0
    6.9875    2.0665    0.0000 H   0  0  0  0  0  0  0  0  0  0  0  0
    6.5125    2.8891    0.0000 H   0  0  0  0  0  0  0  0  0  0  0  0
    3.9608    0.9951    0.0000 H   0  0  0  0  0  0  0  0  0  0  0  0
    3.5622    0.3048    0.0000 H   0  0  0  0  0  0  0  0  0  0  0  0
    5.1215    1.9906    0.0000 H   0  0  0  0  0  0  0  0  0  0  0  0
    4.4312    2.3891    0.0000 H   0  0  0  0  0  0  0  0  0  0  0  0
    6.1588    0.0465    0.0000 H   0  0  0  0  0  0  0  0  0  0  0  0
    5.5758   -0.7775    0.0000 H   0  0  0  0  0  0  0  0  0  0  0  0
    3.1427    0.3798    0.0000 H   0  0  0  0  0  0  0  0  0  0  0  0
    2.7699   -2.3975    0.0000 H   0  0  0  0  0  0  0  0  0  0  0  0
    5.5758   -2.3975    0.0000 H   0  0  0  0  0  0  0  0  0  0  0  0
    1.4984    2.6429    0.0000 H   0  0  0  0  0  0  0  0  0  0  0  0
    4.1728   -3.2075    0.0000 H   0  0  0  0  0  0  0  0  0  0  0  0
  1  7  1  0  0  0  0
  2 14  1  0  0  0  0
  3 10  1  0  0  0  0
  3 29  1  0  0  0  0
  4  5  1  0  0  0  0
  4 12  1  0  0  0  0
  4 16  1  0  0  0  0
  5 19  2  0  0  0  0
  6 16  2  0  0  0  0
  6 19  1  0  0  0  0
  7  8  1  0  0  0  0
  7  9  1  0  0  0  0
  7 10  1  0  0  0  0
  8  9  1  0  0  0  0
  8 21  1  0  0  0  0
  8 22  1  0  0  0  0
  9 23  1  0  0  0  0
  9 24  1  0  0  0  0
 10 11  1  0  0  0  0
 10 12  1  0  0  0  0
 11 13  1  0  0  0  0
 11 25  1  0  0  0  0
 11 26  1  0  0  0  0
 12 27  1  0  0  0  0
 12 28  1  0  0  0  0
 13 14  1  0  0  0  0
 13 15  2  0  0  0  0
 14 17  2  0  0  0  0
 15 18  1  0  0  0  0
 15 30  1  0  0  0  0
 16 31  1  0  0  0  0
 17 20  1  0  0  0  0
 17 32  1  0  0  0  0
 18 20  2  0  0  0  0
 18 33  1  0  0  0  0
 19 34  1  0  0  0  0
 20 35  1  0  0  0  0
M  END
> <PUBCHEM_COMPOUND_CID>
119361

> <PUBCHEM_COMPOUND_CANONICALIZED>
1

> <PUBCHEM_CACTVS_COMPLEXITY>
353

> <PUBCHEM_CACTVS_HBOND_ACCEPTOR>
3

> <PUBCHEM_CACTVS_HBOND_DONOR>
1

> <PUBCHEM_CACTVS_ROTATABLE_BOND>
5

> <PUBCHEM_CACTVS_SUBSKEYS>
AAADccBzIAAGAAAAAAAAAAAAGAAAAWAAAAAwAAAAAAAAAAABwAAAHgIICAAADEbBmCQ1EIYIEgCiAiBDJAASAAswhYAdyAAIA4iKKCKBmxCEYAAswAMYiAeQwOAOgAAAAAABAAAAAAAAAAIAAAAAAAAAAA==

> <PUBCHEM_IUPAC_OPENEYE_NAME>
2-(1-chlorocyclopropyl)-1-(2-chlorophenyl)-3-(1,2,4-triazol-1-yl)propan-2-ol

> <PUBCHEM_IUPAC_CAS_NAME>
2-(1-chlorocyclopropyl)-1-(2-chlorophenyl)-3-(1,2,4-triazol-1-yl)-2-propanol

> <PUBCHEM_IUPAC_NAME_MARKUP>
2-(1-chlorocyclopropyl)-1-(2-chlorophenyl)-3-(1,2,4-triazol-1-yl)propan-2-ol

> <PUBCHEM_IUPAC_NAME>
2-(1-chlorocyclopropyl)-1-(2-chlorophenyl)-3-(1,2,4-triazol-1-yl)propan-2-ol

> <PUBCHEM_IUPAC_SYSTEMATIC_NAME>
2-(1-chloranylcyclopropyl)-1-(2-chlorophenyl)-3-(1,2,4-triazol-1-yl)propan-2-ol

> <PUBCHEM_IUPAC_TRADITIONAL_NAME>
2-(1-chlorocyclopropyl)-1-(2-chlorophenyl)-3-(1,2,4-triazol-1-yl)propan-2-ol

> <PUBCHEM_IUPAC_INCHI>
InChI=1S/C14H15Cl2N3O/c15-12-4-2-1-3-11(12)7-14(20,13(16)5-6-13)8-19-10-17-9-18-19/h1-4,9-10,20H,5-8H2

> <PUBCHEM_IUPAC_INCHIKEY>
HHUQPWODPBDTLI-UHFFFAOYSA-N

> <PUBCHEM_XLOGP3_AA>
2.7

> <PUBCHEM_EXACT_MASS>
311.0592175

> <PUBCHEM_MOLECULAR_FORMULA>
C14H15Cl2N3O

> <PUBCHEM_MOLECULAR_WEIGHT>
312.2

> <PUBCHEM_SMILES>
C1CC1(C(CC2=CC=CC=C2Cl)(CN3C=NC=N3)O)Cl

> <PUBCHEM_CONNECTIVITY_SMILES>
C1CC1(C(CC2=CC=CC=C2Cl)(CN3C=NC=N3)O)Cl

> <PUBCHEM_CACTVS_TPSA>
50.9

> <PUBCHEM_MONOISOTOPIC_WEIGHT>
311.0592175

> <PUBCHEM_TOTAL_CHARGE>
0

> <PUBCHEM_HEAVY_ATOM_COUNT>
20

> <PUBCHEM_ATOM_DEF_STEREO_COUNT>
0

> <PUBCHEM_ATOM_UDEF_STEREO_COUNT>
1

> <PUBCHEM_BOND_DEF_STEREO_COUNT>
0

> <PUBCHEM_BOND_UDEF_STEREO_COUNT>
0

> <PUBCHEM_ISOTOPIC_ATOM_COUNT>
0

> <PUBCHEM_COMPONENT_COUNT>
1

> <PUBCHEM_CACTVS_TAUTO_COUNT>
-1

> <PUBCHEM_COORDINATE_TYPE>
1
5
255

> <PUBCHEM_BONDANNOTATIONS>
13  14  8
13  15  8
14  17  8
15  18  8
17  20  8
18  20  8
10  3  3
4  16  8
4  5  8
5  19  8
6  16  8
6  19  8

$$$$
