11967214
  -OEChem-05122608532D

 23 24  0     0  0  0  0  0  0999 V2000
    2.4465    1.6527    0.0000 Br  0  0  0  0  0  0  0  0  0  0  0  0
    2.0000   -0.8794    0.0000 Br  0  0  0  0  0  0  0  0  0  0  0  0
    5.7017    0.4679    0.0000 Br  0  0  0  0  0  0  0  0  0  0  0  0
    5.4641   -0.8794    0.0000 Br  0  0  0  0  0  0  0  0  0  0  0  0
    3.1305    3.5321    0.0000 Br  0  0  0  0  0  0  0  0  0  0  0  0
    2.0000   -2.8794    0.0000 Br  0  0  0  0  0  0  0  0  0  0  0  0
    5.1001    3.8794    0.0000 Br  0  0  0  0  0  0  0  0  0  0  0  0
    3.7321   -3.8794    0.0000 Br  0  0  0  0  0  0  0  0  0  0  0  0
    3.7321    0.1206    0.0000 O   0  0  0  0  0  0  0  0  0  0  0  0
    4.0741    1.0603    0.0000 C   0  0  0  0  0  0  0  0  0  0  0  0
    3.7321   -0.8794    0.0000 C   0  0  0  0  0  0  0  0  0  0  0  0
    3.4313    1.8264    0.0000 C   0  0  0  0  0  0  0  0  0  0  0  0
    2.8660   -1.3794    0.0000 C   0  0  0  0  0  0  0  0  0  0  0  0
    5.0589    1.2340    0.0000 C   0  0  0  0  0  0  0  0  0  0  0  0
    4.5981   -1.3794    0.0000 C   0  0  0  0  0  0  0  0  0  0  0  0
    3.7733    2.7660    0.0000 C   0  0  0  0  0  0  0  0  0  0  0  0
    2.8660   -2.3794    0.0000 C   0  0  0  0  0  0  0  0  0  0  0  0
    5.4009    2.1737    0.0000 C   0  0  0  0  0  0  0  0  0  0  0  0
    4.5981   -2.3794    0.0000 C   0  0  0  0  0  0  0  0  0  0  0  0
    4.7581    2.9397    0.0000 C   0  0  0  0  0  0  0  0  0  0  0  0
    3.7321   -2.8794    0.0000 C   0  0  0  0  0  0  0  0  0  0  0  0
    6.0115    2.2813    0.0000 H   0  0  0  0  0  0  0  0  0  0  0  0
    5.1350   -2.6894    0.0000 H   0  0  0  0  0  0  0  0  0  0  0  0
  1 12  1  0  0  0  0
  2 13  1  0  0  0  0
  3 14  1  0  0  0  0
  4 15  1  0  0  0  0
  5 16  1  0  0  0  0
  6 17  1  0  0  0  0
  7 20  1  0  0  0  0
  8 21  1  0  0  0  0
  9 10  1  0  0  0  0
  9 11  1  0  0  0  0
 10 12  2  0  0  0  0
 10 14  1  0  0  0  0
 11 13  2  0  0  0  0
 11 15  1  0  0  0  0
 12 16  1  0  0  0  0
 13 17  1  0  0  0  0
 14 18  2  0  0  0  0
 15 19  2  0  0  0  0
 16 20  2  0  0  0  0
 17 21  2  0  0  0  0
 18 20  1  0  0  0  0
 18 22  1  0  0  0  0
 19 21  1  0  0  0  0
 19 23  1  0  0  0  0
M  END
> <PUBCHEM_COMPOUND_CID>
11967214

> <PUBCHEM_COMPOUND_CANONICALIZED>
1

> <PUBCHEM_CACTVS_COMPLEXITY>
326

> <PUBCHEM_CACTVS_HBOND_ACCEPTOR>
1

> <PUBCHEM_CACTVS_HBOND_DONOR>
0

> <PUBCHEM_CACTVS_ROTATABLE_BOND>
2

> <PUBCHEM_CACTVS_SUBSKEYS>
AAADcQBwIAAAHAAAAAAAAAAAAAAAAAAAAAAwYAAAAAAAAAABQAAAGgBAAAABqASAkAAwBoAABACAACBCAAACCAAgIAQAiAAECKgMJiKEMBqCOCCkwBEIqheAQAAAABAEAIAgBAEAIAgBAEAIAgAAAAAAAA==

> <PUBCHEM_IUPAC_OPENEYE_NAME>
1,2,3,5-tetrabromo-4-(2,3,4,6-tetrabromophenoxy)benzene

> <PUBCHEM_IUPAC_CAS_NAME>
1,2,3,5-tetrabromo-4-(2,3,4,6-tetrabromophenoxy)benzene

> <PUBCHEM_IUPAC_NAME_MARKUP>
1,2,3,5-tetrabromo-4-(2,3,4,6-tetrabromophenoxy)benzene

> <PUBCHEM_IUPAC_NAME>
1,2,3,5-tetrabromo-4-(2,3,4,6-tetrabromophenoxy)benzene

> <PUBCHEM_IUPAC_SYSTEMATIC_NAME>
1,2,3,5-tetrakis(bromanyl)-4-[2,3,4,6-tetrakis(bromanyl)phenoxy]benzene

> <PUBCHEM_IUPAC_TRADITIONAL_NAME>
1,2,3,5-tetrabromo-4-(2,3,4,6-tetrabromophenoxy)benzene

> <PUBCHEM_IUPAC_INCHI>
InChI=1S/C12H2Br8O/c13-3-1-5(15)11(9(19)7(3)17)21-12-6(16)2-4(14)8(18)10(12)20/h1-2H

> <PUBCHEM_IUPAC_INCHIKEY>
AAFUUKPTSPVXJH-UHFFFAOYSA-N

> <PUBCHEM_XLOGP3_AA>
9

> <PUBCHEM_EXACT_MASS>
801.34907

> <PUBCHEM_MOLECULAR_FORMULA>
C12H2Br8O

> <PUBCHEM_MOLECULAR_WEIGHT>
801.4

> <PUBCHEM_SMILES>
C1=C(C(=C(C(=C1Br)Br)Br)OC2=C(C(=C(C=C2Br)Br)Br)Br)Br

> <PUBCHEM_CONNECTIVITY_SMILES>
C1=C(C(=C(C(=C1Br)Br)Br)OC2=C(C(=C(C=C2Br)Br)Br)Br)Br

> <PUBCHEM_CACTVS_TPSA>
9.2

> <PUBCHEM_MONOISOTOPIC_WEIGHT>
793.35727

> <PUBCHEM_TOTAL_CHARGE>
0

> <PUBCHEM_HEAVY_ATOM_COUNT>
21

> <PUBCHEM_ATOM_DEF_STEREO_COUNT>
0

> <PUBCHEM_ATOM_UDEF_STEREO_COUNT>
0

> <PUBCHEM_BOND_DEF_STEREO_COUNT>
0

> <PUBCHEM_BOND_UDEF_STEREO_COUNT>
0

> <PUBCHEM_ISOTOPIC_ATOM_COUNT>
0

> <PUBCHEM_COMPONENT_COUNT>
1

> <PUBCHEM_CACTVS_TAUTO_COUNT>
-1

> <PUBCHEM_COORDINATE_TYPE>
1
5
255

> <PUBCHEM_BONDANNOTATIONS>
10  12  8
10  14  8
11  13  8
11  15  8
12  16  8
13  17  8
14  18  8
15  19  8
16  20  8
17  21  8
18  20  8
19  21  8

$$$$
