119627
  -OEChem-05122609122D

 27 29  0     1  0  0  0  0  0999 V2000
    2.0000    0.1832    0.0000 O   0  0  0  0  0  0  0  0  0  0  0  0
    3.7326   -0.8168    0.0000 C   0  0  3  0  0  0  0  0  0  0  0  0
    4.5986   -0.3168    0.0000 C   0  0  3  0  0  0  0  0  0  0  0  0
    4.5988   -1.3172    0.0000 C   0  0  0  0  0  0  0  0  0  0  0  0
    2.8665   -0.3168    0.0000 C   0  0  3  0  0  0  0  0  0  0  0  0
    2.8665    0.6832    0.0000 C   0  0  3  0  0  0  0  0  0  0  0  0
    4.5986    0.6832    0.0000 C   0  0  0  0  0  0  0  0  0  0  0  0
    3.7326    1.1832    0.0000 C   0  0  3  0  0  0  0  0  0  0  0  0
    5.5988   -1.3172    0.0000 C   0  0  0  0  0  0  0  0  0  0  0  0
    4.0988   -2.1832    0.0000 C   0  0  0  0  0  0  0  0  0  0  0  0
    3.7326    2.1832    0.0000 C   0  0  0  0  0  0  0  0  0  0  0  0
    3.4225   -1.3537    0.0000 H   0  0  0  0  0  0  0  0  0  0  0  0
    5.2186   -0.3167    0.0000 H   0  0  0  0  0  0  0  0  0  0  0  0
    2.5566   -0.8537    0.0000 H   0  0  0  0  0  0  0  0  0  0  0  0
    2.5566    1.2202    0.0000 H   0  0  0  0  0  0  0  0  0  0  0  0
    5.2092    0.5756    0.0000 H   0  0  0  0  0  0  0  0  0  0  0  0
    4.8106    1.2658    0.0000 H   0  0  0  0  0  0  0  0  0  0  0  0
    4.2695    1.4932    0.0000 H   0  0  0  0  0  0  0  0  0  0  0  0
    5.5988   -1.9372    0.0000 H   0  0  0  0  0  0  0  0  0  0  0  0
    6.2188   -1.3172    0.0000 H   0  0  0  0  0  0  0  0  0  0  0  0
    5.5988   -0.6972    0.0000 H   0  0  0  0  0  0  0  0  0  0  0  0
    3.5619   -1.8732    0.0000 H   0  0  0  0  0  0  0  0  0  0  0  0
    3.7888   -2.7202    0.0000 H   0  0  0  0  0  0  0  0  0  0  0  0
    4.6358   -2.4932    0.0000 H   0  0  0  0  0  0  0  0  0  0  0  0
    4.3526    2.1832    0.0000 H   0  0  0  0  0  0  0  0  0  0  0  0
    3.7326    2.8032    0.0000 H   0  0  0  0  0  0  0  0  0  0  0  0
    3.1126    2.1832    0.0000 H   0  0  0  0  0  0  0  0  0  0  0  0
  1  5  1  0  0  0  0
  1  6  1  0  0  0  0
  2  3  1  0  0  0  0
  2  4  1  0  0  0  0
  2  5  1  0  0  0  0
  2 12  1  0  0  0  0
  3  4  1  0  0  0  0
  3  7  1  0  0  0  0
  3 13  1  0  0  0  0
  4  9  1  0  0  0  0
  4 10  1  0  0  0  0
  5  6  1  0  0  0  0
  5 14  1  0  0  0  0
  6  8  1  0  0  0  0
  6 15  1  0  0  0  0
  7  8  1  0  0  0  0
  7 16  1  0  0  0  0
  7 17  1  0  0  0  0
  8 11  1  0  0  0  0
  8 18  1  0  0  0  0
  9 19  1  0  0  0  0
  9 20  1  0  0  0  0
  9 21  1  0  0  0  0
 10 22  1  0  0  0  0
 10 23  1  0  0  0  0
 10 24  1  0  0  0  0
 11 25  1  0  0  0  0
 11 26  1  0  0  0  0
 11 27  1  0  0  0  0
M  END
> <PUBCHEM_COMPOUND_CID>
119627

> <PUBCHEM_COMPOUND_CANONICALIZED>
1

> <PUBCHEM_CACTVS_COMPLEXITY>
209

> <PUBCHEM_CACTVS_HBOND_ACCEPTOR>
1

> <PUBCHEM_CACTVS_HBOND_DONOR>
0

> <PUBCHEM_CACTVS_ROTATABLE_BOND>
0

> <PUBCHEM_CACTVS_SUBSKEYS>
AAADceBwIAAAAAAAAAAAAAAAGiAAAAAAAAAwAAAABogAAAAAAAAAGgAAAAAADxSggAICAAAABAAAAAAAAAAAAAAAAAAAAAAAAAAAAAIAAAACAAAEAAAAAAGAwPAPgAAAAAAAAADAAAYAABAAAAAAAAAAAA==

> <PUBCHEM_IUPAC_OPENEYE_NAME>
5,8,8-trimethyl-3-oxatricyclo[5.1.0.02,4]octane

> <PUBCHEM_IUPAC_CAS_NAME>
5,8,8-trimethyl-3-oxatricyclo[5.1.0.02,4]octane

> <PUBCHEM_IUPAC_NAME_MARKUP>
5,8,8-trimethyl-3-oxatricyclo[5.1.0.0<SUP>2,4</SUP>]octane

> <PUBCHEM_IUPAC_NAME>
5,8,8-trimethyl-3-oxatricyclo[5.1.0.02,4]octane

> <PUBCHEM_IUPAC_SYSTEMATIC_NAME>
5,8,8-trimethyl-3-oxatricyclo[5.1.0.02,4]octane

> <PUBCHEM_IUPAC_TRADITIONAL_NAME>
5,8,8-trimethyl-3-oxatricyclo[5.1.0.02,4]octane

> <PUBCHEM_IUPAC_INCHI>
InChI=1S/C10H16O/c1-5-4-6-7(10(6,2)3)9-8(5)11-9/h5-9H,4H2,1-3H3

> <PUBCHEM_IUPAC_INCHIKEY>
KNHFDBGGSOSGEO-UHFFFAOYSA-N

> <PUBCHEM_XLOGP3_AA>
2.4

> <PUBCHEM_EXACT_MASS>
152.120115130

> <PUBCHEM_MOLECULAR_FORMULA>
C10H16O

> <PUBCHEM_MOLECULAR_WEIGHT>
152.23

> <PUBCHEM_SMILES>
CC1CC2C(C2(C)C)C3C1O3

> <PUBCHEM_CONNECTIVITY_SMILES>
CC1CC2C(C2(C)C)C3C1O3

> <PUBCHEM_CACTVS_TPSA>
12.5

> <PUBCHEM_MONOISOTOPIC_WEIGHT>
152.120115130

> <PUBCHEM_TOTAL_CHARGE>
0

> <PUBCHEM_HEAVY_ATOM_COUNT>
11

> <PUBCHEM_ATOM_DEF_STEREO_COUNT>
0

> <PUBCHEM_ATOM_UDEF_STEREO_COUNT>
5

> <PUBCHEM_BOND_DEF_STEREO_COUNT>
0

> <PUBCHEM_BOND_UDEF_STEREO_COUNT>
0

> <PUBCHEM_ISOTOPIC_ATOM_COUNT>
0

> <PUBCHEM_COMPONENT_COUNT>
1

> <PUBCHEM_CACTVS_TAUTO_COUNT>
-1

> <PUBCHEM_COORDINATE_TYPE>
1
5
255

> <PUBCHEM_BONDANNOTATIONS>
5  1  3
6  1  3
2  4  3
3  7  3
8  11  3

$$$$
