119688
  -OEChem-05122609052D

 30 29  0     0  0  0  0  0  0999 V2000
    3.4030   -1.5000    0.0000 S   0  0  0  0  0  0  0  0  0  0  0  0
    6.3671    0.3660    0.0000 F   0  0  0  0  0  0  0  0  0  0  0  0
    7.3671   -1.3660    0.0000 F   0  0  0  0  0  0  0  0  0  0  0  0
    7.2331    0.8660    0.0000 F   0  0  0  0  0  0  0  0  0  0  0  0
    8.2331   -0.8660    0.0000 F   0  0  0  0  0  0  0  0  0  0  0  0
    5.5010   -0.1340    0.0000 F   0  0  0  0  0  0  0  0  0  0  0  0
    6.5010   -1.8660    0.0000 F   0  0  0  0  0  0  0  0  0  0  0  0
    8.0991    1.3660    0.0000 F   0  0  0  0  0  0  0  0  0  0  0  0
    9.0991   -0.3660    0.0000 F   0  0  0  0  0  0  0  0  0  0  0  0
    9.9651    0.1340    0.0000 F   0  0  0  0  0  0  0  0  0  0  0  0
    8.9651    1.8660    0.0000 F   0  0  0  0  0  0  0  0  0  0  0  0
   11.1972    2.0000    0.0000 F   0  0  0  0  0  0  0  0  0  0  0  0
   10.8312    0.6340    0.0000 F   0  0  0  0  0  0  0  0  0  0  0  0
    9.8312    2.3660    0.0000 F   0  0  0  0  0  0  0  0  0  0  0  0
    2.5369   -2.0000    0.0000 O   0  0  0  0  0  0  0  0  0  0  0  0
    2.9030   -0.6340    0.0000 O   0  0  0  0  0  0  0  0  0  0  0  0
    3.9030   -2.3660    0.0000 O   0  0  0  0  0  0  0  0  0  0  0  0
    6.8671   -0.5000    0.0000 C   0  0  0  0  0  0  0  0  0  0  0  0
    7.7331    0.0000    0.0000 C   0  0  0  0  0  0  0  0  0  0  0  0
    6.0010   -1.0000    0.0000 C   0  0  0  0  0  0  0  0  0  0  0  0
    8.5991    0.5000    0.0000 C   0  0  0  0  0  0  0  0  0  0  0  0
    5.1350   -1.5000    0.0000 C   0  0  0  0  0  0  0  0  0  0  0  0
    9.4651    1.0000    0.0000 C   0  0  0  0  0  0  0  0  0  0  0  0
    4.2690   -1.0000    0.0000 C   0  0  0  0  0  0  0  0  0  0  0  0
   10.3312    1.5000    0.0000 C   0  0  0  0  0  0  0  0  0  0  0  0
    4.7365   -1.9750    0.0000 H   0  0  0  0  0  0  0  0  0  0  0  0
    5.5335   -1.9750    0.0000 H   0  0  0  0  0  0  0  0  0  0  0  0
    4.6675   -0.5251    0.0000 H   0  0  0  0  0  0  0  0  0  0  0  0
    3.8705   -0.5251    0.0000 H   0  0  0  0  0  0  0  0  0  0  0  0
    2.0000   -1.6900    0.0000 H   0  0  0  0  0  0  0  0  0  0  0  0
  1 15  1  0  0  0  0
  1 16  2  0  0  0  0
  1 17  2  0  0  0  0
  1 24  1  0  0  0  0
  2 18  1  0  0  0  0
  3 18  1  0  0  0  0
  4 19  1  0  0  0  0
  5 19  1  0  0  0  0
  6 20  1  0  0  0  0
  7 20  1  0  0  0  0
  8 21  1  0  0  0  0
  9 21  1  0  0  0  0
 10 23  1  0  0  0  0
 11 23  1  0  0  0  0
 12 25  1  0  0  0  0
 13 25  1  0  0  0  0
 14 25  1  0  0  0  0
 15 30  1  0  0  0  0
 18 19  1  0  0  0  0
 18 20  1  0  0  0  0
 19 21  1  0  0  0  0
 20 22  1  0  0  0  0
 21 23  1  0  0  0  0
 22 24  1  0  0  0  0
 22 26  1  0  0  0  0
 22 27  1  0  0  0  0
 23 25  1  0  0  0  0
 24 28  1  0  0  0  0
 24 29  1  0  0  0  0
M  END
> <PUBCHEM_COMPOUND_CID>
119688

> <PUBCHEM_COMPOUND_CANONICALIZED>
1

> <PUBCHEM_CACTVS_COMPLEXITY>
585

> <PUBCHEM_CACTVS_HBOND_ACCEPTOR>
16

> <PUBCHEM_CACTVS_HBOND_DONOR>
1

> <PUBCHEM_CACTVS_ROTATABLE_BOND>
7

> <PUBCHEM_CACTVS_SUBSKEYS>
AAADcYBwMcBAAAAAAAAAAAAAAAAAAAAAAAAAAAAAAAAAAAAAAAAAGQQACAAACACEQBCAAAAAAIIAAAAAAHBAAAAAAAAAAAAAAAAAAAIAAAAAAAAAAAAAAAEAgIAAAAAAAAAAAAAAAAAAAAAAAAAAAAAAAA==

> <PUBCHEM_IUPAC_OPENEYE_NAME>
3,3,4,4,5,5,6,6,7,7,8,8,8-tridecafluorooctane-1-sulfonic acid

> <PUBCHEM_IUPAC_CAS_NAME>
3,3,4,4,5,5,6,6,7,7,8,8,8-tridecafluoro-1-octanesulfonic acid

> <PUBCHEM_IUPAC_NAME_MARKUP>
3,3,4,4,5,5,6,6,7,7,8,8,8-tridecafluorooctane-1-sulfonic acid

> <PUBCHEM_IUPAC_NAME>
3,3,4,4,5,5,6,6,7,7,8,8,8-tridecafluorooctane-1-sulfonic acid

> <PUBCHEM_IUPAC_SYSTEMATIC_NAME>
3,3,4,4,5,5,6,6,7,7,8,8,8-tridecakis(fluoranyl)octane-1-sulfonic acid

> <PUBCHEM_IUPAC_TRADITIONAL_NAME>
3,3,4,4,5,5,6,6,7,7,8,8,8-tridecafluorooctane-1-sulfonic acid

> <PUBCHEM_IUPAC_INCHI>
InChI=1S/C8H5F13O3S/c9-3(10,1-2-25(22,23)24)4(11,12)5(13,14)6(15,16)7(17,18)8(19,20)21/h1-2H2,(H,22,23,24)

> <PUBCHEM_IUPAC_INCHIKEY>
VIONGDJUYAYOPU-UHFFFAOYSA-N

> <PUBCHEM_XLOGP3_AA>
3.9

> <PUBCHEM_EXACT_MASS>
427.9751813

> <PUBCHEM_MOLECULAR_FORMULA>
C8H5F13O3S

> <PUBCHEM_MOLECULAR_WEIGHT>
428.17

> <PUBCHEM_SMILES>
C(CS(=O)(=O)O)C(C(C(C(C(C(F)(F)F)(F)F)(F)F)(F)F)(F)F)(F)F

> <PUBCHEM_CONNECTIVITY_SMILES>
C(CS(=O)(=O)O)C(C(C(C(C(C(F)(F)F)(F)F)(F)F)(F)F)(F)F)(F)F

> <PUBCHEM_CACTVS_TPSA>
62.8

> <PUBCHEM_MONOISOTOPIC_WEIGHT>
427.9751813

> <PUBCHEM_TOTAL_CHARGE>
0

> <PUBCHEM_HEAVY_ATOM_COUNT>
25

> <PUBCHEM_ATOM_DEF_STEREO_COUNT>
0

> <PUBCHEM_ATOM_UDEF_STEREO_COUNT>
0

> <PUBCHEM_BOND_DEF_STEREO_COUNT>
0

> <PUBCHEM_BOND_UDEF_STEREO_COUNT>
0

> <PUBCHEM_ISOTOPIC_ATOM_COUNT>
0

> <PUBCHEM_COMPONENT_COUNT>
1

> <PUBCHEM_CACTVS_TAUTO_COUNT>
-1

> <PUBCHEM_COORDINATE_TYPE>
1
5
255

$$$$
