119981
  -OEChem-05122609152D

 16 16  0     1  0  0  0  0  0999 V2000
    4.4142    0.3706    0.0000 O   0  0  0  0  0  0  0  0  0  0  0  0
    2.0000   -2.0436    0.0000 O   0  0  0  0  0  0  0  0  0  0  0  0
    3.1895    1.5953    0.0000 O   0  0  0  0  0  0  0  0  0  0  0  0
    3.7071   -1.3365    0.0000 N   0  0  0  0  0  0  0  0  0  0  0  0
    3.7071   -0.3365    0.0000 C   0  0  3  0  0  0  0  0  0  0  0  0
    2.7071   -0.3365    0.0000 C   0  0  0  0  0  0  0  0  0  0  0  0
    2.7071   -1.3365    0.0000 C   0  0  0  0  0  0  0  0  0  0  0  0
    4.1554    1.3365    0.0000 C   0  0  0  0  0  0  0  0  0  0  0  0
    4.8625    2.0436    0.0000 C   0  0  0  0  0  0  0  0  0  0  0  0
    3.4698    0.2363    0.0000 H   0  0  0  0  0  0  0  0  0  0  0  0
    2.7071    0.2835    0.0000 H   0  0  0  0  0  0  0  0  0  0  0  0
    2.0871   -0.3365    0.0000 H   0  0  0  0  0  0  0  0  0  0  0  0
    4.1455   -1.7749    0.0000 H   0  0  0  0  0  0  0  0  0  0  0  0
    5.3009    1.6052    0.0000 H   0  0  0  0  0  0  0  0  0  0  0  0
    5.3009    2.4820    0.0000 H   0  0  0  0  0  0  0  0  0  0  0  0
    4.4241    2.4820    0.0000 H   0  0  0  0  0  0  0  0  0  0  0  0
  1  5  1  0  0  0  0
  1  8  1  0  0  0  0
  2  7  2  0  0  0  0
  3  8  2  0  0  0  0
  4  5  1  0  0  0  0
  4  7  1  0  0  0  0
  4 13  1  0  0  0  0
  5  6  1  0  0  0  0
  5 10  1  0  0  0  0
  6  7  1  0  0  0  0
  6 11  1  0  0  0  0
  6 12  1  0  0  0  0
  8  9  1  0  0  0  0
  9 14  1  0  0  0  0
  9 15  1  0  0  0  0
  9 16  1  0  0  0  0
M  END
> <PUBCHEM_COMPOUND_CID>
119981

> <PUBCHEM_COMPOUND_CANONICALIZED>
1

> <PUBCHEM_CACTVS_COMPLEXITY>
154

> <PUBCHEM_CACTVS_HBOND_ACCEPTOR>
3

> <PUBCHEM_CACTVS_HBOND_DONOR>
1

> <PUBCHEM_CACTVS_ROTATABLE_BOND>
2

> <PUBCHEM_CACTVS_SUBSKEYS>
AAADcYBiMAAAAAAAAAAAAAAAAABYAAAAAAAAAAAAAAAAAAAAAAAAHgAQAAAACADhgAYCCALABAAIAAGQGAAAAAAAAAAAAIEIAAEAAAwAAAAKAAACNgAAAAAAAAAAAAAAAAAAAAAAAAAAAAAAAAAAAAAAAA==

> <PUBCHEM_IUPAC_OPENEYE_NAME>
(4-oxoazetidin-2-yl) acetate

> <PUBCHEM_IUPAC_CAS_NAME>
acetic acid (4-oxo-2-azetidinyl) ester

> <PUBCHEM_IUPAC_NAME_MARKUP>
(4-oxoazetidin-2-yl) acetate

> <PUBCHEM_IUPAC_NAME>
(4-oxoazetidin-2-yl) acetate

> <PUBCHEM_IUPAC_SYSTEMATIC_NAME>
(4-oxidanylideneazetidin-2-yl) ethanoate

> <PUBCHEM_IUPAC_TRADITIONAL_NAME>
acetic acid (4-ketoazetidin-2-yl) ester

> <PUBCHEM_IUPAC_INCHI>
InChI=1S/C5H7NO3/c1-3(7)9-5-2-4(8)6-5/h5H,2H2,1H3,(H,6,8)

> <PUBCHEM_IUPAC_INCHIKEY>
OEYMQQDJCUHKQS-UHFFFAOYSA-N

> <PUBCHEM_XLOGP3>
-0.3

> <PUBCHEM_EXACT_MASS>
129.042593085

> <PUBCHEM_MOLECULAR_FORMULA>
C5H7NO3

> <PUBCHEM_MOLECULAR_WEIGHT>
129.11

> <PUBCHEM_SMILES>
CC(=O)OC1CC(=O)N1

> <PUBCHEM_CONNECTIVITY_SMILES>
CC(=O)OC1CC(=O)N1

> <PUBCHEM_CACTVS_TPSA>
55.4

> <PUBCHEM_MONOISOTOPIC_WEIGHT>
129.042593085

> <PUBCHEM_TOTAL_CHARGE>
0

> <PUBCHEM_HEAVY_ATOM_COUNT>
9

> <PUBCHEM_ATOM_DEF_STEREO_COUNT>
0

> <PUBCHEM_ATOM_UDEF_STEREO_COUNT>
1

> <PUBCHEM_BOND_DEF_STEREO_COUNT>
0

> <PUBCHEM_BOND_UDEF_STEREO_COUNT>
0

> <PUBCHEM_ISOTOPIC_ATOM_COUNT>
0

> <PUBCHEM_COMPONENT_COUNT>
1

> <PUBCHEM_CACTVS_TAUTO_COUNT>
-1

> <PUBCHEM_COORDINATE_TYPE>
1
5
255

> <PUBCHEM_BONDANNOTATIONS>
5  1  3

$$$$
