120228
  -OEChem-05122608202D

 15 14  0     0  0  0  0  0  0999 V2000
    4.0981    0.2990    0.0000 F   0  0  0  0  0  0  0  0  0  0  0  0
    5.0981   -1.4330    0.0000 F   0  0  0  0  0  0  0  0  0  0  0  0
    5.9641   -0.9330    0.0000 F   0  0  0  0  0  0  0  0  0  0  0  0
    4.9641    0.7990    0.0000 F   0  0  0  0  0  0  0  0  0  0  0  0
    2.0000   -0.0670    0.0000 F   0  0  0  0  0  0  0  0  0  0  0  0
    2.3660   -1.4330    0.0000 F   0  0  0  0  0  0  0  0  0  0  0  0
    3.3660    0.2990    0.0000 F   0  0  0  0  0  0  0  0  0  0  0  0
    3.7321   -1.0670    0.0000 O   0  0  0  0  0  0  0  0  0  0  0  0
    7.1962   -0.0670    0.0000 O   0  0  0  0  0  0  0  0  0  0  0  0
    6.3301    1.4330    0.0000 O   0  0  0  0  0  0  0  0  0  0  0  0
    4.5981   -0.5670    0.0000 C   0  0  0  0  0  0  0  0  0  0  0  0
    5.4641   -0.0670    0.0000 C   0  0  0  0  0  0  0  0  0  0  0  0
    6.3301    0.4330    0.0000 C   0  0  0  0  0  0  0  0  0  0  0  0
    2.8660   -0.5670    0.0000 C   0  0  0  0  0  0  0  0  0  0  0  0
    7.7331    0.2430    0.0000 H   0  0  0  0  0  0  0  0  0  0  0  0
  1 11  1  0  0  0  0
  2 11  1  0  0  0  0
  3 12  1  0  0  0  0
  4 12  1  0  0  0  0
  5 14  1  0  0  0  0
  6 14  1  0  0  0  0
  7 14  1  0  0  0  0
  8 11  1  0  0  0  0
  8 14  1  0  0  0  0
  9 13  1  0  0  0  0
  9 15  1  0  0  0  0
 10 13  2  0  0  0  0
 11 12  1  0  0  0  0
 12 13  1  0  0  0  0
M  END
> <PUBCHEM_COMPOUND_CID>
120228

> <PUBCHEM_COMPOUND_CANONICALIZED>
1

> <PUBCHEM_CACTVS_COMPLEXITY>
232

> <PUBCHEM_CACTVS_HBOND_ACCEPTOR>
10

> <PUBCHEM_CACTVS_HBOND_DONOR>
1

> <PUBCHEM_CACTVS_ROTATABLE_BOND>
3

> <PUBCHEM_CACTVS_SUBSKEYS>
AAADcQBgMcAAAAAAAAAAAAAAAAAAAAAAAAAAAAAAAAAAAAAAAAAACwAACAAACAAAgBAACAAABgAIAACQCAAAAAAAAAAAAAEAAAAAAAQAAAAAQAABIAAAAAAAAAAAAAAAAAAAAAAAAAAAAAAAAAAAAAAAAA==

> <PUBCHEM_IUPAC_OPENEYE_NAME>
2,2,3,3-tetrafluoro-3-(trifluoromethoxy)propanoic acid

> <PUBCHEM_IUPAC_CAS_NAME>
2,2,3,3-tetrafluoro-3-(trifluoromethoxy)propanoic acid

> <PUBCHEM_IUPAC_NAME_MARKUP>
2,2,3,3-tetrafluoro-3-(trifluoromethoxy)propanoic acid

> <PUBCHEM_IUPAC_NAME>
2,2,3,3-tetrafluoro-3-(trifluoromethoxy)propanoic acid

> <PUBCHEM_IUPAC_SYSTEMATIC_NAME>
2,2,3,3-tetrakis(fluoranyl)-3-(trifluoromethyloxy)propanoic acid

> <PUBCHEM_IUPAC_TRADITIONAL_NAME>
2,2,3,3-tetrafluoro-3-(trifluoromethoxy)propionic acid

> <PUBCHEM_IUPAC_INCHI>
InChI=1S/C4HF7O3/c5-2(6,1(12)13)3(7,8)14-4(9,10)11/h(H,12,13)

> <PUBCHEM_IUPAC_INCHIKEY>
AGIMOOYNBDLMJV-UHFFFAOYSA-N

> <PUBCHEM_XLOGP3_AA>
2.3

> <PUBCHEM_EXACT_MASS>
229.98139102

> <PUBCHEM_MOLECULAR_FORMULA>
C4HF7O3

> <PUBCHEM_MOLECULAR_WEIGHT>
230.04

> <PUBCHEM_SMILES>
C(=O)(C(C(OC(F)(F)F)(F)F)(F)F)O

> <PUBCHEM_CONNECTIVITY_SMILES>
C(=O)(C(C(OC(F)(F)F)(F)F)(F)F)O

> <PUBCHEM_CACTVS_TPSA>
46.5

> <PUBCHEM_MONOISOTOPIC_WEIGHT>
229.98139102

> <PUBCHEM_TOTAL_CHARGE>
0

> <PUBCHEM_HEAVY_ATOM_COUNT>
14

> <PUBCHEM_ATOM_DEF_STEREO_COUNT>
0

> <PUBCHEM_ATOM_UDEF_STEREO_COUNT>
0

> <PUBCHEM_BOND_DEF_STEREO_COUNT>
0

> <PUBCHEM_BOND_UDEF_STEREO_COUNT>
0

> <PUBCHEM_ISOTOPIC_ATOM_COUNT>
0

> <PUBCHEM_COMPONENT_COUNT>
1

> <PUBCHEM_CACTVS_TAUTO_COUNT>
-1

> <PUBCHEM_COORDINATE_TYPE>
1
5
255

$$$$
