12236003
  -OEChem-05122608322D

 39 39  0     0  0  0  0  0  0999 V2000
    6.0010    3.8450    0.0000 O   0  0  0  0  0  0  0  0  0  0  0  0
    5.1350    1.3450    0.0000 O   0  0  0  0  0  0  0  0  0  0  0  0
    3.4030   -3.6550    0.0000 O   0  0  0  0  0  0  0  0  0  0  0  0
    3.4030    1.3450    0.0000 O   0  0  0  0  0  0  0  0  0  0  0  0
    7.7331    5.8450    0.0000 O   0  0  0  0  0  0  0  0  0  0  0  0
    5.1350   -3.6550    0.0000 O   0  0  0  0  0  0  0  0  0  0  0  0
    2.5369   -6.1550    0.0000 O   0  0  0  0  0  0  0  0  0  0  0  0
    6.0010    2.8450    0.0000 C   0  0  0  0  0  0  0  0  0  0  0  0
    4.2690   -0.1550    0.0000 C   0  0  0  0  0  0  0  0  0  0  0  0
    5.1350    2.3450    0.0000 C   0  0  0  0  0  0  0  0  0  0  0  0
    4.2690   -2.1550    0.0000 C   0  0  0  0  0  0  0  0  0  0  0  0
    5.1350   -0.6550    0.0000 C   0  0  0  0  0  0  0  0  0  0  0  0
    3.4030   -0.6550    0.0000 C   0  0  0  0  0  0  0  0  0  0  0  0
    5.1350   -1.6550    0.0000 C   0  0  0  0  0  0  0  0  0  0  0  0
    3.4030   -1.6550    0.0000 C   0  0  0  0  0  0  0  0  0  0  0  0
    6.8671    4.3450    0.0000 C   0  0  0  0  0  0  0  0  0  0  0  0
    4.2690    0.8450    0.0000 C   0  0  0  0  0  0  0  0  0  0  0  0
    4.2690   -3.1550    0.0000 C   0  0  0  0  0  0  0  0  0  0  0  0
    6.8671    5.3450    0.0000 C   0  0  0  0  0  0  0  0  0  0  0  0
    3.4030   -4.6550    0.0000 C   0  0  0  0  0  0  0  0  0  0  0  0
    2.5369   -5.1550    0.0000 C   0  0  0  0  0  0  0  0  0  0  0  0
    6.2131    2.2624    0.0000 H   0  0  0  0  0  0  0  0  0  0  0  0
    6.6116    2.9527    0.0000 H   0  0  0  0  0  0  0  0  0  0  0  0
    4.9230    2.9276    0.0000 H   0  0  0  0  0  0  0  0  0  0  0  0
    4.5244    2.2373    0.0000 H   0  0  0  0  0  0  0  0  0  0  0  0
    5.6720   -0.3450    0.0000 H   0  0  0  0  0  0  0  0  0  0  0  0
    2.8660   -0.3450    0.0000 H   0  0  0  0  0  0  0  0  0  0  0  0
    5.6720   -1.9650    0.0000 H   0  0  0  0  0  0  0  0  0  0  0  0
    2.8660   -1.9650    0.0000 H   0  0  0  0  0  0  0  0  0  0  0  0
    7.0791    3.7624    0.0000 H   0  0  0  0  0  0  0  0  0  0  0  0
    7.4776    4.4527    0.0000 H   0  0  0  0  0  0  0  0  0  0  0  0
    6.6550    5.9276    0.0000 H   0  0  0  0  0  0  0  0  0  0  0  0
    6.2565    5.2373    0.0000 H   0  0  0  0  0  0  0  0  0  0  0  0
    3.6150   -5.2376    0.0000 H   0  0  0  0  0  0  0  0  0  0  0  0
    4.0135   -4.5473    0.0000 H   0  0  0  0  0  0  0  0  0  0  0  0
    2.3249   -4.5724    0.0000 H   0  0  0  0  0  0  0  0  0  0  0  0
    1.9264   -5.2627    0.0000 H   0  0  0  0  0  0  0  0  0  0  0  0
    7.7331    6.4650    0.0000 H   0  0  0  0  0  0  0  0  0  0  0  0
    2.0000   -6.4650    0.0000 H   0  0  0  0  0  0  0  0  0  0  0  0
  1  8  1  0  0  0  0
  1 16  1  0  0  0  0
  2 10  1  0  0  0  0
  2 17  1  0  0  0  0
  3 18  1  0  0  0  0
  3 20  1  0  0  0  0
  4 17  2  0  0  0  0
  5 19  1  0  0  0  0
  5 38  1  0  0  0  0
  6 18  2  0  0  0  0
  7 21  1  0  0  0  0
  7 39  1  0  0  0  0
  8 10  1  0  0  0  0
  8 22  1  0  0  0  0
  8 23  1  0  0  0  0
  9 12  2  0  0  0  0
  9 13  1  0  0  0  0
  9 17  1  0  0  0  0
 10 24  1  0  0  0  0
 10 25  1  0  0  0  0
 11 14  2  0  0  0  0
 11 15  1  0  0  0  0
 11 18  1  0  0  0  0
 12 14  1  0  0  0  0
 12 26  1  0  0  0  0
 13 15  2  0  0  0  0
 13 27  1  0  0  0  0
 14 28  1  0  0  0  0
 15 29  1  0  0  0  0
 16 19  1  0  0  0  0
 16 30  1  0  0  0  0
 16 31  1  0  0  0  0
 19 32  1  0  0  0  0
 19 33  1  0  0  0  0
 20 21  1  0  0  0  0
 20 34  1  0  0  0  0
 20 35  1  0  0  0  0
 21 36  1  0  0  0  0
 21 37  1  0  0  0  0
M  END
> <PUBCHEM_COMPOUND_CID>
12236003

> <PUBCHEM_COMPOUND_CANONICALIZED>
1

> <PUBCHEM_CACTVS_COMPLEXITY>
310

> <PUBCHEM_CACTVS_HBOND_ACCEPTOR>
7

> <PUBCHEM_CACTVS_HBOND_DONOR>
2

> <PUBCHEM_CACTVS_ROTATABLE_BOND>
11

> <PUBCHEM_CACTVS_SUBSKEYS>
AAADceBwOAAAAAAAAAAAAAAAAAAAAAAAAAAwAAAAAAAAAAABAAAAGgAACAAADACgmAIwCIAABgCIAiDSCAACAAAkAAAIiAEACMgJNjKANRiCMQAkwAELqYeIyDCOQAAAAAAAAACAAAAAAAAAAAAAAAAAAA==

> <PUBCHEM_IUPAC_OPENEYE_NAME>
O4-[2-(2-hydroxyethoxy)ethyl] O1-(2-hydroxyethyl) benzene-1,4-dicarboxylate

> <PUBCHEM_IUPAC_CAS_NAME>
benzene-1,4-dicarboxylic acid O4-[2-(2-hydroxyethoxy)ethyl] ester O1-(2-hydroxyethyl) ester

> <PUBCHEM_IUPAC_NAME_MARKUP>
4-<I>O</I>-[2-(2-hydroxyethoxy)ethyl] 1-<I>O</I>-(2-hydroxyethyl) benzene-1,4-dicarboxylate

> <PUBCHEM_IUPAC_NAME>
4-O-[2-(2-hydroxyethoxy)ethyl] 1-O-(2-hydroxyethyl) benzene-1,4-dicarboxylate

> <PUBCHEM_IUPAC_SYSTEMATIC_NAME>
O1-(2-hydroxyethyl) O4-[2-(2-hydroxyethyloxy)ethyl] benzene-1,4-dicarboxylate

> <PUBCHEM_IUPAC_TRADITIONAL_NAME>
benzene-1,4-dicarboxylic acid O4-[2-(2-hydroxyethoxy)ethyl] ester O1-(2-hydroxyethyl) ester

> <PUBCHEM_IUPAC_INCHI>
InChI=1S/C14H18O7/c15-5-7-19-9-10-21-14(18)12-3-1-11(2-4-12)13(17)20-8-6-16/h1-4,15-16H,5-10H2

> <PUBCHEM_IUPAC_INCHIKEY>
AYVLVEOLEKBOTB-UHFFFAOYSA-N

> <PUBCHEM_XLOGP3>
0.3

> <PUBCHEM_EXACT_MASS>
298.10525291

> <PUBCHEM_MOLECULAR_FORMULA>
C14H18O7

> <PUBCHEM_MOLECULAR_WEIGHT>
298.29

> <PUBCHEM_SMILES>
C1=CC(=CC=C1C(=O)OCCO)C(=O)OCCOCCO

> <PUBCHEM_CONNECTIVITY_SMILES>
C1=CC(=CC=C1C(=O)OCCO)C(=O)OCCOCCO

> <PUBCHEM_CACTVS_TPSA>
102

> <PUBCHEM_MONOISOTOPIC_WEIGHT>
298.10525291

> <PUBCHEM_TOTAL_CHARGE>
0

> <PUBCHEM_HEAVY_ATOM_COUNT>
21

> <PUBCHEM_ATOM_DEF_STEREO_COUNT>
0

> <PUBCHEM_ATOM_UDEF_STEREO_COUNT>
0

> <PUBCHEM_BOND_DEF_STEREO_COUNT>
0

> <PUBCHEM_BOND_UDEF_STEREO_COUNT>
0

> <PUBCHEM_ISOTOPIC_ATOM_COUNT>
0

> <PUBCHEM_COMPONENT_COUNT>
1

> <PUBCHEM_CACTVS_TAUTO_COUNT>
-1

> <PUBCHEM_COORDINATE_TYPE>
1
5
255

> <PUBCHEM_BONDANNOTATIONS>
11  14  8
11  15  8
12  14  8
13  15  8
9  12  8
9  13  8

$$$$
