122471
  -OEChem-05122608462D

 22 22  0     0  0  0  0  0  0999 V2000
    4.5981    4.5000    0.0000 I   0  0  0  0  0  0  0  0  0  0  0  0
    2.8660   -4.5000    0.0000 Cl  0  0  0  0  0  0  0  0  0  0  0  0
    2.8660   -0.5000    0.0000 O   0  0  0  0  0  0  0  0  0  0  0  0
    3.7320    1.0000    0.0000 O   0  0  0  0  0  0  0  0  0  0  0  0
    2.8660   -1.5000    0.0000 C   0  0  0  0  0  0  0  0  0  0  0  0
    2.0000   -2.0000    0.0000 C   0  0  0  0  0  0  0  0  0  0  0  0
    3.7320   -2.0000    0.0000 C   0  0  0  0  0  0  0  0  0  0  0  0
    3.7320    0.0000    0.0000 C   0  0  0  0  0  0  0  0  0  0  0  0
    2.0000   -3.0000    0.0000 C   0  0  0  0  0  0  0  0  0  0  0  0
    3.7320   -3.0000    0.0000 C   0  0  0  0  0  0  0  0  0  0  0  0
    2.8660   -3.5000    0.0000 C   0  0  0  0  0  0  0  0  0  0  0  0
    4.5981    1.5000    0.0000 C   0  0  0  0  0  0  0  0  0  0  0  0
    4.5981    2.5000    0.0000 C   0  0  0  0  0  0  0  0  0  0  0  0
    4.5981    3.5000    0.0000 C   0  0  0  0  0  0  0  0  0  0  0  0
    1.4631   -1.6900    0.0000 H   0  0  0  0  0  0  0  0  0  0  0  0
    4.2690   -1.6900    0.0000 H   0  0  0  0  0  0  0  0  0  0  0  0
    3.9441   -0.5826    0.0000 H   0  0  0  0  0  0  0  0  0  0  0  0
    4.3426    0.1077    0.0000 H   0  0  0  0  0  0  0  0  0  0  0  0
    1.4631   -3.3100    0.0000 H   0  0  0  0  0  0  0  0  0  0  0  0
    4.2690   -3.3100    0.0000 H   0  0  0  0  0  0  0  0  0  0  0  0
    4.8101    0.9174    0.0000 H   0  0  0  0  0  0  0  0  0  0  0  0
    5.2087    1.6077    0.0000 H   0  0  0  0  0  0  0  0  0  0  0  0
  1 14  1  0  0  0  0
  2 11  1  0  0  0  0
  3  5  1  0  0  0  0
  3  8  1  0  0  0  0
  4  8  1  0  0  0  0
  4 12  1  0  0  0  0
  5  6  2  0  0  0  0
  5  7  1  0  0  0  0
  6  9  1  0  0  0  0
  6 15  1  0  0  0  0
  7 10  2  0  0  0  0
  7 16  1  0  0  0  0
  8 17  1  0  0  0  0
  8 18  1  0  0  0  0
  9 11  2  0  0  0  0
  9 19  1  0  0  0  0
 10 11  1  0  0  0  0
 10 20  1  0  0  0  0
 12 13  1  0  0  0  0
 12 21  1  0  0  0  0
 12 22  1  0  0  0  0
 13 14  3  0  0  0  0
M  END
> <PUBCHEM_COMPOUND_CID>
122471

> <PUBCHEM_COMPOUND_CANONICALIZED>
1

> <PUBCHEM_CACTVS_COMPLEXITY>
213

> <PUBCHEM_CACTVS_HBOND_ACCEPTOR>
2

> <PUBCHEM_CACTVS_HBOND_DONOR>
0

> <PUBCHEM_CACTVS_ROTATABLE_BOND>
4

> <PUBCHEM_CACTVS_SUBSKEYS>
AAADccBwMAAEAgAAAAAAAAAAAAAAAAAAAAAwAAAAAAAAAAABAAAAGgIgAAAACAaikCMwDoAABADAECBCAAACCAAgJQAIiAAGCogcJiKFMxqgMCAkwBEMqAeAQAAAACAAAAAAAAAAQAAAAAAAAAAAAAAAAA==

> <PUBCHEM_IUPAC_OPENEYE_NAME>
1-chloro-4-(3-iodoprop-2-ynoxymethoxy)benzene

> <PUBCHEM_IUPAC_CAS_NAME>
1-chloro-4-(3-iodoprop-2-ynoxymethoxy)benzene

> <PUBCHEM_IUPAC_NAME_MARKUP>
1-chloro-4-(3-iodoprop-2-ynoxymethoxy)benzene

> <PUBCHEM_IUPAC_NAME>
1-chloro-4-(3-iodoprop-2-ynoxymethoxy)benzene

> <PUBCHEM_IUPAC_SYSTEMATIC_NAME>
1-chloranyl-4-(3-iodanylprop-2-ynoxymethoxy)benzene

> <PUBCHEM_IUPAC_TRADITIONAL_NAME>
1-chloro-4-(3-iodoprop-2-ynoxymethoxy)benzene

> <PUBCHEM_IUPAC_INCHI>
InChI=1S/C10H8ClIO2/c11-9-2-4-10(5-3-9)14-8-13-7-1-6-12/h2-5H,7-8H2

> <PUBCHEM_IUPAC_INCHIKEY>
KQLBUIOMHNFZMD-UHFFFAOYSA-N

> <PUBCHEM_XLOGP3_AA>
3.4

> <PUBCHEM_EXACT_MASS>
321.92575

> <PUBCHEM_MOLECULAR_FORMULA>
C10H8ClIO2

> <PUBCHEM_MOLECULAR_WEIGHT>
322.52

> <PUBCHEM_SMILES>
C1=CC(=CC=C1OCOCC#CI)Cl

> <PUBCHEM_CONNECTIVITY_SMILES>
C1=CC(=CC=C1OCOCC#CI)Cl

> <PUBCHEM_CACTVS_TPSA>
18.5

> <PUBCHEM_MONOISOTOPIC_WEIGHT>
321.92575

> <PUBCHEM_TOTAL_CHARGE>
0

> <PUBCHEM_HEAVY_ATOM_COUNT>
14

> <PUBCHEM_ATOM_DEF_STEREO_COUNT>
0

> <PUBCHEM_ATOM_UDEF_STEREO_COUNT>
0

> <PUBCHEM_BOND_DEF_STEREO_COUNT>
0

> <PUBCHEM_BOND_UDEF_STEREO_COUNT>
0

> <PUBCHEM_ISOTOPIC_ATOM_COUNT>
0

> <PUBCHEM_COMPONENT_COUNT>
1

> <PUBCHEM_CACTVS_TAUTO_COUNT>
-1

> <PUBCHEM_COORDINATE_TYPE>
1
5
255

> <PUBCHEM_BONDANNOTATIONS>
10  11  8
5  6  8
5  7  8
6  9  8
7  10  8
9  11  8

$$$$
