122825
  -OEChem-05122608132D

 35 37  0     0  0  0  0  0  0999 V2000
    4.6660   -0.7277    0.0000 S   0  0  0  0  0  0  0  0  0  0  0  0
    4.6660    2.2723    0.0000 O   0  0  0  0  0  0  0  0  0  0  0  0
    6.4260   -0.7624    0.0000 C   0  0  0  0  0  0  0  0  0  0  0  0
    5.5321   -0.2277    0.0000 C   0  0  0  0  0  0  0  0  0  0  0  0
    5.5321    0.7723    0.0000 C   0  0  0  0  0  0  0  0  0  0  0  0
    7.3321    0.7931    0.0000 C   0  0  0  0  0  0  0  0  0  0  0  0
    7.3321   -0.2485    0.0000 C   0  0  0  0  0  0  0  0  0  0  0  0
    6.4260    1.3070    0.0000 C   0  0  0  0  0  0  0  0  0  0  0  0
    6.4144   -1.7623    0.0000 C   0  0  0  0  0  0  0  0  0  0  0  0
    4.6660    1.2723    0.0000 C   0  0  0  0  0  0  0  0  0  0  0  0
    8.1962    1.2964    0.0000 C   0  0  0  0  0  0  0  0  0  0  0  0
    3.8000    0.7723    0.0000 C   0  0  0  0  0  0  0  0  0  0  0  0
    3.8000   -0.2277    0.0000 C   0  0  0  0  0  0  0  0  0  0  0  0
    7.2746   -2.2723    0.0000 C   0  0  0  0  0  0  0  0  0  0  0  0
    2.9061    1.3070    0.0000 C   0  0  0  0  0  0  0  0  0  0  0  0
    9.0641    0.7998    0.0000 C   0  0  0  0  0  0  0  0  0  0  0  0
    2.9061   -0.7624    0.0000 C   0  0  0  0  0  0  0  0  0  0  0  0
    2.0000    0.7931    0.0000 C   0  0  0  0  0  0  0  0  0  0  0  0
    2.0000   -0.2485    0.0000 C   0  0  0  0  0  0  0  0  0  0  0  0
    7.8678   -0.5606    0.0000 H   0  0  0  0  0  0  0  0  0  0  0  0
    6.4188    1.9269    0.0000 H   0  0  0  0  0  0  0  0  0  0  0  0
    5.8051   -1.6476    0.0000 H   0  0  0  0  0  0  0  0  0  0  0  0
    6.1957   -2.3424    0.0000 H   0  0  0  0  0  0  0  0  0  0  0  0
    8.5929    1.7729    0.0000 H   0  0  0  0  0  0  0  0  0  0  0  0
    7.7958    1.7699    0.0000 H   0  0  0  0  0  0  0  0  0  0  0  0
    6.9584   -2.8056    0.0000 H   0  0  0  0  0  0  0  0  0  0  0  0
    7.8079   -2.5885    0.0000 H   0  0  0  0  0  0  0  0  0  0  0  0
    7.5908   -1.7390    0.0000 H   0  0  0  0  0  0  0  0  0  0  0  0
    2.9132    1.9269    0.0000 H   0  0  0  0  0  0  0  0  0  0  0  0
    8.7562    0.2617    0.0000 H   0  0  0  0  0  0  0  0  0  0  0  0
    9.6022    0.4919    0.0000 H   0  0  0  0  0  0  0  0  0  0  0  0
    9.3720    1.3379    0.0000 H   0  0  0  0  0  0  0  0  0  0  0  0
    2.9132   -1.3823    0.0000 H   0  0  0  0  0  0  0  0  0  0  0  0
    1.4643    1.1052    0.0000 H   0  0  0  0  0  0  0  0  0  0  0  0
    1.4643   -0.5606    0.0000 H   0  0  0  0  0  0  0  0  0  0  0  0
  1  4  1  0  0  0  0
  1 13  1  0  0  0  0
  2 10  2  0  0  0  0
  3  4  2  0  0  0  0
  3  7  1  0  0  0  0
  3  9  1  0  0  0  0
  4  5  1  0  0  0  0
  5  8  2  0  0  0  0
  5 10  1  0  0  0  0
  6  7  2  0  0  0  0
  6  8  1  0  0  0  0
  6 11  1  0  0  0  0
  7 20  1  0  0  0  0
  8 21  1  0  0  0  0
  9 14  1  0  0  0  0
  9 22  1  0  0  0  0
  9 23  1  0  0  0  0
 10 12  1  0  0  0  0
 11 16  1  0  0  0  0
 11 24  1  0  0  0  0
 11 25  1  0  0  0  0
 12 13  1  0  0  0  0
 12 15  2  0  0  0  0
 13 17  2  0  0  0  0
 14 26  1  0  0  0  0
 14 27  1  0  0  0  0
 14 28  1  0  0  0  0
 15 18  1  0  0  0  0
 15 29  1  0  0  0  0
 16 30  1  0  0  0  0
 16 31  1  0  0  0  0
 16 32  1  0  0  0  0
 17 19  1  0  0  0  0
 17 33  1  0  0  0  0
 18 19  2  0  0  0  0
 18 34  1  0  0  0  0
 19 35  1  0  0  0  0
M  END
> <PUBCHEM_COMPOUND_CID>
122825

> <PUBCHEM_COMPOUND_CANONICALIZED>
1

> <PUBCHEM_CACTVS_COMPLEXITY>
340

> <PUBCHEM_CACTVS_HBOND_ACCEPTOR>
2

> <PUBCHEM_CACTVS_HBOND_DONOR>
0

> <PUBCHEM_CACTVS_ROTATABLE_BOND>
2

> <PUBCHEM_CACTVS_SUBSKEYS>
AAADceB4IABAAAAAAAAAAAAAAAAAAAAAAAA0YIAAAAAAAACRQAAAGgQAAAAADASA2AAyAYAAAAiIAqBSAAACAAAkCBAIiBkAAMgIIDKgFRCAIQAggAAoiYcIiMCOEAACAAAEAAAgAAQAAAgAAAAAAAAAAA==

> <PUBCHEM_IUPAC_OPENEYE_NAME>
2,4-diethylthioxanthen-9-one

> <PUBCHEM_IUPAC_CAS_NAME>
2,4-diethyl-9-thioxanthenone

> <PUBCHEM_IUPAC_NAME_MARKUP>
2,4-diethylthioxanthen-9-one

> <PUBCHEM_IUPAC_NAME>
2,4-diethylthioxanthen-9-one

> <PUBCHEM_IUPAC_SYSTEMATIC_NAME>
2,4-diethylthioxanthen-9-one

> <PUBCHEM_IUPAC_TRADITIONAL_NAME>
2,4-diethylthioxanthen-9-one

> <PUBCHEM_IUPAC_INCHI>
InChI=1S/C17H16OS/c1-3-11-9-12(4-2)17-14(10-11)16(18)13-7-5-6-8-15(13)19-17/h5-10H,3-4H2,1-2H3

> <PUBCHEM_IUPAC_INCHIKEY>
BTJPUDCSZVCXFQ-UHFFFAOYSA-N

> <PUBCHEM_XLOGP3_AA>
5.1

> <PUBCHEM_EXACT_MASS>
268.09218630

> <PUBCHEM_MOLECULAR_FORMULA>
C17H16OS

> <PUBCHEM_MOLECULAR_WEIGHT>
268.4

> <PUBCHEM_SMILES>
CCC1=CC(=C2C(=C1)C(=O)C3=CC=CC=C3S2)CC

> <PUBCHEM_CONNECTIVITY_SMILES>
CCC1=CC(=C2C(=C1)C(=O)C3=CC=CC=C3S2)CC

> <PUBCHEM_CACTVS_TPSA>
42.4

> <PUBCHEM_MONOISOTOPIC_WEIGHT>
268.09218630

> <PUBCHEM_TOTAL_CHARGE>
0

> <PUBCHEM_HEAVY_ATOM_COUNT>
19

> <PUBCHEM_ATOM_DEF_STEREO_COUNT>
0

> <PUBCHEM_ATOM_UDEF_STEREO_COUNT>
0

> <PUBCHEM_BOND_DEF_STEREO_COUNT>
0

> <PUBCHEM_BOND_UDEF_STEREO_COUNT>
0

> <PUBCHEM_ISOTOPIC_ATOM_COUNT>
0

> <PUBCHEM_COMPONENT_COUNT>
1

> <PUBCHEM_CACTVS_TAUTO_COUNT>
-1

> <PUBCHEM_COORDINATE_TYPE>
1
5
255

> <PUBCHEM_BONDANNOTATIONS>
1  13  8
1  4  8
10  12  8
12  13  8
12  15  8
13  17  8
15  18  8
17  19  8
18  19  8
3  4  8
3  7  8
4  5  8
5  10  8
5  8  8
6  7  8
6  8  8

$$$$
