12308615
  -OEChem-05122609542D

 38 40  0     1  0  0  0  0  0999 V2000
    3.0291   -2.4287    0.0000 O   0  0  0  0  0  0  0  0  0  0  0  0
    4.5772   -0.3664    0.0000 C   0  0  1  0  0  0  0  0  0  0  0  0
    4.6841    0.8104    0.0000 C   0  0  0  0  0  0  0  0  0  0  0  0
    4.0772    1.8243    0.0000 C   0  0  1  0  0  0  0  0  0  0  0  0
    5.4782    0.0675    0.0000 C   0  0  1  0  0  0  0  0  0  0  0  0
    3.6763    0.0675    0.0000 C   0  0  0  0  0  0  0  0  0  0  0  0
    3.4538    1.0424    0.0000 C   0  0  0  0  0  0  0  0  0  0  0  0
    5.0772    1.8243    0.0000 C   0  0  0  0  0  0  0  0  0  0  0  0
    4.4413   -1.3511    0.0000 C   0  0  0  0  0  0  0  0  0  0  0  0
    5.7007    1.0424    0.0000 C   0  0  0  0  0  0  0  0  0  0  0  0
    5.5796    1.5319    0.0000 C   0  0  0  0  0  0  0  0  0  0  0  0
    5.8040    0.5489    0.0000 C   0  0  0  0  0  0  0  0  0  0  0  0
    2.9912   -0.6528    0.0000 C   0  0  0  0  0  0  0  0  0  0  0  0
    3.4630   -1.5278    0.0000 C   0  0  0  0  0  0  0  0  0  0  0  0
    6.2600   -0.5560    0.0000 C   0  0  0  0  0  0  0  0  0  0  0  0
    2.0000   -0.5203    0.0000 C   0  0  0  0  0  0  0  0  0  0  0  0
    3.8881    2.6530    0.0000 H   0  0  0  0  0  0  0  0  0  0  0  0
    5.4088   -0.5486    0.0000 H   0  0  0  0  0  0  0  0  0  0  0  0
    3.0672    1.5272    0.0000 H   0  0  0  0  0  0  0  0  0  0  0  0
    2.8952    0.7734    0.0000 H   0  0  0  0  0  0  0  0  0  0  0  0
    5.6358    2.0933    0.0000 H   0  0  0  0  0  0  0  0  0  0  0  0
    4.9393    2.4287    0.0000 H   0  0  0  0  0  0  0  0  0  0  0  0
    4.4867   -1.9694    0.0000 H   0  0  0  0  0  0  0  0  0  0  0  0
    5.0609   -1.3709    0.0000 H   0  0  0  0  0  0  0  0  0  0  0  0
    6.2593    0.7734    0.0000 H   0  0  0  0  0  0  0  0  0  0  0  0
    6.0873    1.5272    0.0000 H   0  0  0  0  0  0  0  0  0  0  0  0
    5.9686    1.0491    0.0000 H   0  0  0  0  0  0  0  0  0  0  0  0
    6.0624    1.9209    0.0000 H   0  0  0  0  0  0  0  0  0  0  0  0
    5.1906    2.0147    0.0000 H   0  0  0  0  0  0  0  0  0  0  0  0
    5.6630   -0.0548    0.0000 H   0  0  0  0  0  0  0  0  0  0  0  0
    6.4077    0.4079    0.0000 H   0  0  0  0  0  0  0  0  0  0  0  0
    5.9450    1.1527    0.0000 H   0  0  0  0  0  0  0  0  0  0  0  0
    5.8735   -1.0407    0.0000 H   0  0  0  0  0  0  0  0  0  0  0  0
    6.7448   -0.9425    0.0000 H   0  0  0  0  0  0  0  0  0  0  0  0
    6.6466   -0.0712    0.0000 H   0  0  0  0  0  0  0  0  0  0  0  0
    2.0822    0.0943    0.0000 H   0  0  0  0  0  0  0  0  0  0  0  0
    1.3855   -0.4381    0.0000 H   0  0  0  0  0  0  0  0  0  0  0  0
    1.9178   -1.1348    0.0000 H   0  0  0  0  0  0  0  0  0  0  0  0
  1 14  2  0  0  0  0
  2  3  1  0  0  0  0
  2  5  1  0  0  0  0
  2  6  1  0  0  0  0
  2  9  1  6  0  0  0
  3  4  1  0  0  0  0
  3 11  1  0  0  0  0
  3 12  1  0  0  0  0
  4  7  1  0  0  0  0
  4  8  1  0  0  0  0
  4 17  1  6  0  0  0
  5 10  1  0  0  0  0
  5 15  1  1  0  0  0
  5 18  1  0  0  0  0
  6  7  1  0  0  0  0
  6 13  2  0  0  0  0
  7 19  1  0  0  0  0
  7 20  1  0  0  0  0
  8 10  1  0  0  0  0
  8 21  1  0  0  0  0
  8 22  1  0  0  0  0
  9 14  1  0  0  0  0
  9 23  1  0  0  0  0
  9 24  1  0  0  0  0
 10 25  1  0  0  0  0
 10 26  1  0  0  0  0
 11 27  1  0  0  0  0
 11 28  1  0  0  0  0
 11 29  1  0  0  0  0
 12 30  1  0  0  0  0
 12 31  1  0  0  0  0
 12 32  1  0  0  0  0
 13 14  1  0  0  0  0
 13 16  1  0  0  0  0
 15 33  1  0  0  0  0
 15 34  1  0  0  0  0
 15 35  1  0  0  0  0
 16 36  1  0  0  0  0
 16 37  1  0  0  0  0
 16 38  1  0  0  0  0
M  END
> <PUBCHEM_COMPOUND_CID>
12308615

> <PUBCHEM_COMPOUND_CANONICALIZED>
1

> <PUBCHEM_CACTVS_COMPLEXITY>
402

> <PUBCHEM_CACTVS_HBOND_ACCEPTOR>
1

> <PUBCHEM_CACTVS_HBOND_DONOR>
0

> <PUBCHEM_CACTVS_ROTATABLE_BOND>
0

> <PUBCHEM_CACTVS_SUBSKEYS>
AAADceBwIAAAAAAAAAAAAAAAAAAAAYIAAAAwAAAABgAQAACAAAAAGgAAAAAADwSAgAACAAAAAACIAoBQAAAAAAAgAAAACAEAAEgAABIAAAAAAAAAgAAIAQMIiMCPgAAAAAAAAACAAAQAACAAAQAACAAAAA==

> <PUBCHEM_IUPAC_OPENEYE_NAME>
(1R,7R,10R)-4,10,11,11-tetramethyltricyclo[5.3.1.01,5]undec-4-en-3-one

> <PUBCHEM_IUPAC_CAS_NAME>
(1R,7R,10R)-4,10,11,11-tetramethyl-3-tricyclo[5.3.1.01,5]undec-4-enone

> <PUBCHEM_IUPAC_NAME_MARKUP>
(1<I>R</I>,7<I>R</I>,10<I>R</I>)-4,10,11,11-tetramethyltricyclo[5.3.1.0<SUP>1,5</SUP>]undec-4-en-3-one

> <PUBCHEM_IUPAC_NAME>
(1R,7R,10R)-4,10,11,11-tetramethyltricyclo[5.3.1.01,5]undec-4-en-3-one

> <PUBCHEM_IUPAC_SYSTEMATIC_NAME>
(1R,7R,10R)-4,10,11,11-tetramethyltricyclo[5.3.1.01,5]undec-4-en-3-one

> <PUBCHEM_IUPAC_TRADITIONAL_NAME>
(1R,7R,10R)-4,10,11,11-tetramethyltricyclo[5.3.1.01,5]undec-4-en-3-one

> <PUBCHEM_IUPAC_INCHI>
InChI=1S/C15H22O/c1-9-5-6-11-7-12-10(2)13(16)8-15(9,12)14(11,3)4/h9,11H,5-8H2,1-4H3/t9-,11-,15+/m1/s1

> <PUBCHEM_IUPAC_INCHIKEY>
GIGKXOAUYMWORB-OSQNNJELSA-N

> <PUBCHEM_XLOGP3_AA>
3.4

> <PUBCHEM_EXACT_MASS>
218.167065321

> <PUBCHEM_MOLECULAR_FORMULA>
C15H22O

> <PUBCHEM_MOLECULAR_WEIGHT>
218.33

> <PUBCHEM_SMILES>
C[C@@H]1CC[C@@H]2CC3=C(C(=O)C[C@]13C2(C)C)C

> <PUBCHEM_CONNECTIVITY_SMILES>
CC1CCC2CC3=C(C(=O)CC13C2(C)C)C

> <PUBCHEM_CACTVS_TPSA>
17.1

> <PUBCHEM_MONOISOTOPIC_WEIGHT>
218.167065321

> <PUBCHEM_TOTAL_CHARGE>
0

> <PUBCHEM_HEAVY_ATOM_COUNT>
16

> <PUBCHEM_ATOM_DEF_STEREO_COUNT>
3

> <PUBCHEM_ATOM_UDEF_STEREO_COUNT>
0

> <PUBCHEM_BOND_DEF_STEREO_COUNT>
0

> <PUBCHEM_BOND_UDEF_STEREO_COUNT>
0

> <PUBCHEM_ISOTOPIC_ATOM_COUNT>
0

> <PUBCHEM_COMPONENT_COUNT>
1

> <PUBCHEM_CACTVS_TAUTO_COUNT>
-1

> <PUBCHEM_COORDINATE_TYPE>
1
5
255

> <PUBCHEM_BONDANNOTATIONS>
2  9  6
4  17  6
5  15  5

$$$$
