123177
  -OEChem-05122608192D

 35 37  0     0  0  0  0  0  0999 V2000
    3.7389   -0.2154    0.0000 C   0  0  0  0  0  0  0  0  0  0  0  0
    2.8729    0.2846    0.0000 C   0  0  0  0  0  0  0  0  0  0  0  0
    3.7229   -1.2569    0.0000 C   0  0  0  0  0  0  0  0  0  0  0  0
    4.6050    0.2846    0.0000 C   0  0  0  0  0  0  0  0  0  0  0  0
    2.0134   -0.2101    0.0000 C   0  0  0  0  0  0  0  0  0  0  0  0
    2.8729    1.2846    0.0000 C   0  0  0  0  0  0  0  0  0  0  0  0
    2.8457   -1.7196    0.0000 C   0  0  0  0  0  0  0  0  0  0  0  0
    4.6209   -1.7846    0.0000 C   0  0  0  0  0  0  0  0  0  0  0  0
    4.6050    1.2846    0.0000 C   0  0  0  0  0  0  0  0  0  0  0  0
    5.5150   -0.2222    0.0000 C   0  0  0  0  0  0  0  0  0  0  0  0
    2.0000   -1.2018    0.0000 C   0  0  0  0  0  0  0  0  0  0  0  0
    3.7389    1.7846    0.0000 C   0  0  0  0  0  0  0  0  0  0  0  0
    5.5230   -1.2638    0.0000 C   0  0  0  0  0  0  0  0  0  0  0  0
    4.2735   -0.5295    0.0000 H   0  0  0  0  0  0  0  0  0  0  0  0
    2.3362    0.5950    0.0000 H   0  0  0  0  0  0  0  0  0  0  0  0
    3.7087   -1.8767    0.0000 H   0  0  0  0  0  0  0  0  0  0  0  0
    5.1395    0.5988    0.0000 H   0  0  0  0  0  0  0  0  0  0  0  0
    1.8045    0.3736    0.0000 H   0  0  0  0  0  0  0  0  0  0  0  0
    1.4019   -0.3120    0.0000 H   0  0  0  0  0  0  0  0  0  0  0  0
    2.6608    1.8672    0.0000 H   0  0  0  0  0  0  0  0  0  0  0  0
    2.2623    1.1770    0.0000 H   0  0  0  0  0  0  0  0  0  0  0  0
    2.4332   -2.1824    0.0000 H   0  0  0  0  0  0  0  0  0  0  0  0
    3.2279   -2.2079    0.0000 H   0  0  0  0  0  0  0  0  0  0  0  0
    4.2199   -2.2575    0.0000 H   0  0  0  0  0  0  0  0  0  0  0  0
    5.0182   -2.2606    0.0000 H   0  0  0  0  0  0  0  0  0  0  0  0
    5.2155    1.1770    0.0000 H   0  0  0  0  0  0  0  0  0  0  0  0
    4.8170    1.8672    0.0000 H   0  0  0  0  0  0  0  0  0  0  0  0
    6.1266   -0.3236    0.0000 H   0  0  0  0  0  0  0  0  0  0  0  0
    5.7195    0.3631    0.0000 H   0  0  0  0  0  0  0  0  0  0  0  0
    1.3914   -1.0833    0.0000 H   0  0  0  0  0  0  0  0  0  0  0  0
    1.7753   -1.7796    0.0000 H   0  0  0  0  0  0  0  0  0  0  0  0
    4.1375    2.2596    0.0000 H   0  0  0  0  0  0  0  0  0  0  0  0
    3.3404    2.2596    0.0000 H   0  0  0  0  0  0  0  0  0  0  0  0
    5.7365   -1.8459    0.0000 H   0  0  0  0  0  0  0  0  0  0  0  0
    6.1330   -1.1530    0.0000 H   0  0  0  0  0  0  0  0  0  0  0  0
  1  2  1  0  0  0  0
  1  3  1  0  0  0  0
  1  4  1  0  0  0  0
  1 14  1  0  0  0  0
  2  5  1  0  0  0  0
  2  6  1  0  0  0  0
  2 15  1  0  0  0  0
  3  7  1  0  0  0  0
  3  8  1  0  0  0  0
  3 16  1  0  0  0  0
  4  9  1  0  0  0  0
  4 10  1  0  0  0  0
  4 17  1  0  0  0  0
  5 11  1  0  0  0  0
  5 18  1  0  0  0  0
  5 19  1  0  0  0  0
  6 12  1  0  0  0  0
  6 20  1  0  0  0  0
  6 21  1  0  0  0  0
  7 11  1  0  0  0  0
  7 22  1  0  0  0  0
  7 23  1  0  0  0  0
  8 13  1  0  0  0  0
  8 24  1  0  0  0  0
  8 25  1  0  0  0  0
  9 12  1  0  0  0  0
  9 26  1  0  0  0  0
  9 27  1  0  0  0  0
 10 13  1  0  0  0  0
 10 28  1  0  0  0  0
 10 29  1  0  0  0  0
 11 30  1  0  0  0  0
 11 31  1  0  0  0  0
 12 32  1  0  0  0  0
 12 33  1  0  0  0  0
 13 34  1  0  0  0  0
 13 35  1  0  0  0  0
M  END
> <PUBCHEM_COMPOUND_CID>
123177

> <PUBCHEM_COMPOUND_CANONICALIZED>
1

> <PUBCHEM_CACTVS_COMPLEXITY>
139

> <PUBCHEM_CACTVS_HBOND_ACCEPTOR>
0

> <PUBCHEM_CACTVS_HBOND_DONOR>
0

> <PUBCHEM_CACTVS_ROTATABLE_BOND>
0

> <PUBCHEM_CACTVS_SUBSKEYS>
AAADceBwAAAAAAAAAAAAAAAAAAAAAAAAAAAwYMAAAAAAAADAAAAAGAAAAAAADQCAAAAAAAAAAAAAAAAAAAAAAAAAAAAAAAAAAAAAAAIAAAAAAAAAAAAAAAEAgMAOgAAAAAAAAAAAAAQAACAAAAAAAAAAAA==

> <PUBCHEM_IUPAC_OPENEYE_NAME>
2,3,3a,4,5,6,6a,7,8,9,9a,9b-dodecahydro-1H-phenalene

> <PUBCHEM_IUPAC_CAS_NAME>
2,3,3a,4,5,6,6a,7,8,9,9a,9b-dodecahydro-1H-phenalene

> <PUBCHEM_IUPAC_NAME_MARKUP>
2,3,3<I>a</I>,4,5,6,6<I>a</I>,7,8,9,9<I>a</I>,9<I>b</I>-dodecahydro-1<I>H</I>-phenalene

> <PUBCHEM_IUPAC_NAME>
2,3,3a,4,5,6,6a,7,8,9,9a,9b-dodecahydro-1H-phenalene

> <PUBCHEM_IUPAC_SYSTEMATIC_NAME>
2,3,3a,4,5,6,6a,7,8,9,9a,9b-dodecahydro-1H-phenalene

> <PUBCHEM_IUPAC_TRADITIONAL_NAME>
2,3,3a,4,5,6,6a,7,8,9,9a,9b-dodecahydro-1H-phenalene

> <PUBCHEM_IUPAC_INCHI>
InChI=1S/C13H22/c1-4-10-6-2-8-12-9-3-7-11(5-1)13(10)12/h10-13H,1-9H2

> <PUBCHEM_IUPAC_INCHIKEY>
QGUYWRASKKWRQG-UHFFFAOYSA-N

> <PUBCHEM_XLOGP3_AA>
5.5

> <PUBCHEM_EXACT_MASS>
178.172150702

> <PUBCHEM_MOLECULAR_FORMULA>
C13H22

> <PUBCHEM_MOLECULAR_WEIGHT>
178.31

> <PUBCHEM_SMILES>
C1CC2CCCC3C2C(C1)CCC3

> <PUBCHEM_CONNECTIVITY_SMILES>
C1CC2CCCC3C2C(C1)CCC3

> <PUBCHEM_CACTVS_TPSA>
0

> <PUBCHEM_MONOISOTOPIC_WEIGHT>
178.172150702

> <PUBCHEM_TOTAL_CHARGE>
0

> <PUBCHEM_HEAVY_ATOM_COUNT>
13

> <PUBCHEM_ATOM_DEF_STEREO_COUNT>
0

> <PUBCHEM_ATOM_UDEF_STEREO_COUNT>
0

> <PUBCHEM_BOND_DEF_STEREO_COUNT>
0

> <PUBCHEM_BOND_UDEF_STEREO_COUNT>
0

> <PUBCHEM_ISOTOPIC_ATOM_COUNT>
0

> <PUBCHEM_COMPONENT_COUNT>
1

> <PUBCHEM_CACTVS_TAUTO_COUNT>
-1

> <PUBCHEM_COORDINATE_TYPE>
1
5
255

$$$$
