12313993
  -OEChem-05122609162D

 39 41  0     1  0  0  0  0  0999 V2000
    3.8142   -0.5444    0.0000 C   0  0  1  0  0  0  0  0  0  0  0  0
    4.2920    1.4042    0.0000 C   0  0  0  0  0  0  0  0  0  0  0  0
    3.5554    0.4216    0.0000 C   0  0  2  0  0  0  0  0  0  0  0  0
    2.4153   -1.0532    0.0000 C   0  0  0  0  0  0  0  0  0  0  0  0
    5.0352   -1.4100    0.0000 C   0  0  0  0  0  0  0  0  0  0  0  0
    2.1564   -0.0872    0.0000 C   0  0  0  0  0  0  0  0  0  0  0  0
    5.5886    0.1104    0.0000 C   0  0  0  0  0  0  0  0  0  0  0  0
    5.8643   -0.8508    0.0000 C   0  0  0  0  0  0  0  0  0  0  0  0
    6.6460   -1.4649    0.0000 C   0  0  2  0  0  0  0  0  0  0  0  0
    5.3117   -2.3649    0.0000 C   0  0  0  0  0  0  0  0  0  0  0  0
    4.0730   -1.5103    0.0000 C   0  0  0  0  0  0  0  0  0  0  0  0
    4.1875    2.3987    0.0000 C   0  0  0  0  0  0  0  0  0  0  0  0
    5.2056    1.8109    0.0000 C   0  0  0  0  0  0  0  0  0  0  0  0
    6.3052   -2.3987    0.0000 C   0  0  0  0  0  0  0  0  0  0  0  0
    7.6078   -1.1909    0.0000 C   0  0  0  0  0  0  0  0  0  0  0  0
    3.3354    1.2426    0.0000 H   0  0  0  0  0  0  0  0  0  0  0  0
    2.6102   -1.6417    0.0000 H   0  0  0  0  0  0  0  0  0  0  0  0
    1.8213   -1.2310    0.0000 H   0  0  0  0  0  0  0  0  0  0  0  0
    1.5625   -0.2650    0.0000 H   0  0  0  0  0  0  0  0  0  0  0  0
    1.9615    0.5013    0.0000 H   0  0  0  0  0  0  0  0  0  0  0  0
    5.5937    0.7304    0.0000 H   0  0  0  0  0  0  0  0  0  0  0  0
    6.2029    0.1942    0.0000 H   0  0  0  0  0  0  0  0  0  0  0  0
    7.0683   -1.9189    0.0000 H   0  0  0  0  0  0  0  0  0  0  0  0
    5.3558   -2.9833    0.0000 H   0  0  0  0  0  0  0  0  0  0  0  0
    4.7014   -2.4738    0.0000 H   0  0  0  0  0  0  0  0  0  0  0  0
    4.6719   -1.3498    0.0000 H   0  0  0  0  0  0  0  0  0  0  0  0
    4.2335   -2.1092    0.0000 H   0  0  0  0  0  0  0  0  0  0  0  0
    3.4742   -1.6708    0.0000 H   0  0  0  0  0  0  0  0  0  0  0  0
    3.5709    2.3339    0.0000 H   0  0  0  0  0  0  0  0  0  0  0  0
    4.1227    3.0153    0.0000 H   0  0  0  0  0  0  0  0  0  0  0  0
    4.8041    2.4635    0.0000 H   0  0  0  0  0  0  0  0  0  0  0  0
    4.9534    2.3773    0.0000 H   0  0  0  0  0  0  0  0  0  0  0  0
    5.7719    2.0631    0.0000 H   0  0  0  0  0  0  0  0  0  0  0  0
    5.4577    1.2445    0.0000 H   0  0  0  0  0  0  0  0  0  0  0  0
    6.9068   -2.5489    0.0000 H   0  0  0  0  0  0  0  0  0  0  0  0
    6.2191   -3.0127    0.0000 H   0  0  0  0  0  0  0  0  0  0  0  0
    7.4379   -0.5946    0.0000 H   0  0  0  0  0  0  0  0  0  0  0  0
    8.2040   -1.0210    0.0000 H   0  0  0  0  0  0  0  0  0  0  0  0
    7.7776   -1.7872    0.0000 H   0  0  0  0  0  0  0  0  0  0  0  0
  1  2  1  0  0  0  0
  1  4  1  0  0  0  0
  1  5  1  0  0  0  0
  1 11  1  1  0  0  0
  2  3  1  0  0  0  0
  2 12  1  0  0  0  0
  2 13  1  0  0  0  0
  3  6  1  0  0  0  0
  3  7  1  0  0  0  0
  3 16  1  6  0  0  0
  4  6  1  0  0  0  0
  4 17  1  0  0  0  0
  4 18  1  0  0  0  0
  5  8  2  0  0  0  0
  5 10  1  0  0  0  0
  6 19  1  0  0  0  0
  6 20  1  0  0  0  0
  7  8  1  0  0  0  0
  7 21  1  0  0  0  0
  7 22  1  0  0  0  0
  8  9  1  0  0  0  0
  9 14  1  0  0  0  0
  9 15  1  1  0  0  0
  9 23  1  0  0  0  0
 10 14  1  0  0  0  0
 10 24  1  0  0  0  0
 10 25  1  0  0  0  0
 11 26  1  0  0  0  0
 11 27  1  0  0  0  0
 11 28  1  0  0  0  0
 12 29  1  0  0  0  0
 12 30  1  0  0  0  0
 12 31  1  0  0  0  0
 13 32  1  0  0  0  0
 13 33  1  0  0  0  0
 13 34  1  0  0  0  0
 14 35  1  0  0  0  0
 14 36  1  0  0  0  0
 15 37  1  0  0  0  0
 15 38  1  0  0  0  0
 15 39  1  0  0  0  0
M  END
> <PUBCHEM_COMPOUND_CID>
12313993

> <PUBCHEM_COMPOUND_CANONICALIZED>
1

> <PUBCHEM_CACTVS_COMPLEXITY>
334

> <PUBCHEM_CACTVS_HBOND_ACCEPTOR>
0

> <PUBCHEM_CACTVS_HBOND_DONOR>
0

> <PUBCHEM_CACTVS_ROTATABLE_BOND>
0

> <PUBCHEM_CACTVS_SUBSKEYS>
AAADceBwAAAAAAAAAAAAAAAAAAAAAYIAAAAgAAAABAAAAGAAAAAAGAAAAAAADwCAAAACAAAAAACAAgBAAAAAAAAgAAAACAAAAAgAAAIAAAAAAAAAgAAIAAMAgMAPgAAAAAAAAAAAAAAAAAAAAQAACAAAAA==

> <PUBCHEM_IUPAC_OPENEYE_NAME>
(1R,5S,8R)-1,5,11,11-tetramethyltricyclo[6.2.1.02,6]undec-2(6)-ene

> <PUBCHEM_IUPAC_CAS_NAME>
(1R,5S,8R)-1,5,11,11-tetramethyltricyclo[6.2.1.02,6]undec-2(6)-ene

> <PUBCHEM_IUPAC_NAME_MARKUP>
(1<I>R</I>,5<I>S</I>,8<I>R</I>)-1,5,11,11-tetramethyltricyclo[6.2.1.0<SUP>2,6</SUP>]undec-2(6)-ene

> <PUBCHEM_IUPAC_NAME>
(1R,5S,8R)-1,5,11,11-tetramethyltricyclo[6.2.1.02,6]undec-2(6)-ene

> <PUBCHEM_IUPAC_SYSTEMATIC_NAME>
(1R,5S,8R)-1,5,11,11-tetramethyltricyclo[6.2.1.02,6]undec-2(6)-ene

> <PUBCHEM_IUPAC_TRADITIONAL_NAME>
(1R,5S,8R)-1,5,11,11-tetramethyltricyclo[6.2.1.02,6]undec-2(6)-ene

> <PUBCHEM_IUPAC_INCHI>
InChI=1S/C15H24/c1-10-5-6-13-12(10)9-11-7-8-15(13,4)14(11,2)3/h10-11H,5-9H2,1-4H3/t10-,11+,15-/m0/s1

> <PUBCHEM_IUPAC_INCHIKEY>
CSKINCSXMLCMAR-RWSFTLGLSA-N

> <PUBCHEM_XLOGP3_AA>
4.3

> <PUBCHEM_EXACT_MASS>
204.187800766

> <PUBCHEM_MOLECULAR_FORMULA>
C15H24

> <PUBCHEM_MOLECULAR_WEIGHT>
204.35

> <PUBCHEM_SMILES>
C[C@H]1CCC2=C1C[C@H]3CC[C@@]2(C3(C)C)C

> <PUBCHEM_CONNECTIVITY_SMILES>
CC1CCC2=C1CC3CCC2(C3(C)C)C

> <PUBCHEM_CACTVS_TPSA>
0

> <PUBCHEM_MONOISOTOPIC_WEIGHT>
204.187800766

> <PUBCHEM_TOTAL_CHARGE>
0

> <PUBCHEM_HEAVY_ATOM_COUNT>
15

> <PUBCHEM_ATOM_DEF_STEREO_COUNT>
3

> <PUBCHEM_ATOM_UDEF_STEREO_COUNT>
0

> <PUBCHEM_BOND_DEF_STEREO_COUNT>
0

> <PUBCHEM_BOND_UDEF_STEREO_COUNT>
0

> <PUBCHEM_ISOTOPIC_ATOM_COUNT>
0

> <PUBCHEM_COMPONENT_COUNT>
1

> <PUBCHEM_CACTVS_TAUTO_COUNT>
-1

> <PUBCHEM_COORDINATE_TYPE>
1
5
255

> <PUBCHEM_BONDANNOTATIONS>
1  11  5
3  16  6
9  15  5

$$$$
