123543
  -OEChem-05122609222D

 27 26  0     0  0  0  0  0  0999 V2000
    2.5369    1.0000    0.0000 O   0  0  0  0  0  0  0  0  0  0  0  0
    4.2690    1.0000    0.0000 C   0  0  0  0  0  0  0  0  0  0  0  0
    5.1350    1.5000    0.0000 C   0  0  0  0  0  0  0  0  0  0  0  0
    4.2690    0.0000    0.0000 C   0  0  0  0  0  0  0  0  0  0  0  0
    3.4030    1.5000    0.0000 C   0  0  0  0  0  0  0  0  0  0  0  0
    6.0010    1.0000    0.0000 C   0  0  0  0  0  0  0  0  0  0  0  0
    3.4030   -0.5000    0.0000 C   0  0  0  0  0  0  0  0  0  0  0  0
    6.8671    1.5000    0.0000 C   0  0  0  0  0  0  0  0  0  0  0  0
    3.4030   -1.5000    0.0000 C   0  0  0  0  0  0  0  0  0  0  0  0
    4.2690    1.6200    0.0000 H   0  0  0  0  0  0  0  0  0  0  0  0
    5.5335    1.9750    0.0000 H   0  0  0  0  0  0  0  0  0  0  0  0
    4.7365    1.9750    0.0000 H   0  0  0  0  0  0  0  0  0  0  0  0
    4.4810   -0.5826    0.0000 H   0  0  0  0  0  0  0  0  0  0  0  0
    4.8796    0.1077    0.0000 H   0  0  0  0  0  0  0  0  0  0  0  0
    3.8015    1.9750    0.0000 H   0  0  0  0  0  0  0  0  0  0  0  0
    3.0044    1.9750    0.0000 H   0  0  0  0  0  0  0  0  0  0  0  0
    5.6025    0.5251    0.0000 H   0  0  0  0  0  0  0  0  0  0  0  0
    6.3996    0.5251    0.0000 H   0  0  0  0  0  0  0  0  0  0  0  0
    3.1909    0.0826    0.0000 H   0  0  0  0  0  0  0  0  0  0  0  0
    2.7924   -0.6077    0.0000 H   0  0  0  0  0  0  0  0  0  0  0  0
    7.1771    0.9631    0.0000 H   0  0  0  0  0  0  0  0  0  0  0  0
    7.4040    1.8100    0.0000 H   0  0  0  0  0  0  0  0  0  0  0  0
    6.5571    2.0369    0.0000 H   0  0  0  0  0  0  0  0  0  0  0  0
    2.7830   -1.5000    0.0000 H   0  0  0  0  0  0  0  0  0  0  0  0
    3.4030   -2.1200    0.0000 H   0  0  0  0  0  0  0  0  0  0  0  0
    4.0230   -1.5000    0.0000 H   0  0  0  0  0  0  0  0  0  0  0  0
    2.0000    1.3100    0.0000 H   0  0  0  0  0  0  0  0  0  0  0  0
  1  5  1  0  0  0  0
  1 27  1  0  0  0  0
  2  3  1  0  0  0  0
  2  4  1  0  0  0  0
  2  5  1  0  0  0  0
  2 10  1  0  0  0  0
  3  6  1  0  0  0  0
  3 11  1  0  0  0  0
  3 12  1  0  0  0  0
  4  7  1  0  0  0  0
  4 13  1  0  0  0  0
  4 14  1  0  0  0  0
  5 15  1  0  0  0  0
  5 16  1  0  0  0  0
  6  8  1  0  0  0  0
  6 17  1  0  0  0  0
  6 18  1  0  0  0  0
  7  9  1  0  0  0  0
  7 19  1  0  0  0  0
  7 20  1  0  0  0  0
  8 21  1  0  0  0  0
  8 22  1  0  0  0  0
  8 23  1  0  0  0  0
  9 24  1  0  0  0  0
  9 25  1  0  0  0  0
  9 26  1  0  0  0  0
M  END
> <PUBCHEM_COMPOUND_CID>
123543

> <PUBCHEM_COMPOUND_CANONICALIZED>
1

> <PUBCHEM_CACTVS_COMPLEXITY>
46.5

> <PUBCHEM_CACTVS_HBOND_ACCEPTOR>
1

> <PUBCHEM_CACTVS_HBOND_DONOR>
1

> <PUBCHEM_CACTVS_ROTATABLE_BOND>
5

> <PUBCHEM_CACTVS_SUBSKEYS>
AAADceBwIAAAAAAAAAAAAAAAAAAAAAAAAAAAAAAAAAAAAAAAAAAAGgAACAAADQCggAICAAAAAgAAAAAAAAAAAAAAAAAAAAAAAAAAEAIAAAAAQAAEAAAAAAGAgAAOAAAAAAAAAAAAAAAAAAAAAAAAAAAAAA==

> <PUBCHEM_IUPAC_OPENEYE_NAME>
2-propylpentan-1-ol

> <PUBCHEM_IUPAC_CAS_NAME>
2-propyl-1-pentanol

> <PUBCHEM_IUPAC_NAME_MARKUP>
2-propylpentan-1-ol

> <PUBCHEM_IUPAC_NAME>
2-propylpentan-1-ol

> <PUBCHEM_IUPAC_SYSTEMATIC_NAME>
2-propylpentan-1-ol

> <PUBCHEM_IUPAC_TRADITIONAL_NAME>
2-propylpentan-1-ol

> <PUBCHEM_IUPAC_INCHI>
InChI=1S/C8H18O/c1-3-5-8(7-9)6-4-2/h8-9H,3-7H2,1-2H3

> <PUBCHEM_IUPAC_INCHIKEY>
LASHFHLFDRTERB-UHFFFAOYSA-N

> <PUBCHEM_XLOGP3_AA>
2.7

> <PUBCHEM_EXACT_MASS>
130.135765193

> <PUBCHEM_MOLECULAR_FORMULA>
C8H18O

> <PUBCHEM_MOLECULAR_WEIGHT>
130.23

> <PUBCHEM_SMILES>
CCCC(CCC)CO

> <PUBCHEM_CONNECTIVITY_SMILES>
CCCC(CCC)CO

> <PUBCHEM_CACTVS_TPSA>
20.2

> <PUBCHEM_MONOISOTOPIC_WEIGHT>
130.135765193

> <PUBCHEM_TOTAL_CHARGE>
0

> <PUBCHEM_HEAVY_ATOM_COUNT>
9

> <PUBCHEM_ATOM_DEF_STEREO_COUNT>
0

> <PUBCHEM_ATOM_UDEF_STEREO_COUNT>
0

> <PUBCHEM_BOND_DEF_STEREO_COUNT>
0

> <PUBCHEM_BOND_UDEF_STEREO_COUNT>
0

> <PUBCHEM_ISOTOPIC_ATOM_COUNT>
0

> <PUBCHEM_COMPONENT_COUNT>
1

> <PUBCHEM_CACTVS_TAUTO_COUNT>
-1

> <PUBCHEM_COORDINATE_TYPE>
1
5
255

$$$$
