123608
  -OEChem-05122610032D

 20 18  0     0  0  0  0  0  0999 V2000
    2.6350    0.0000    0.0000 Cl  0  0  0  0  0  0  0  0  0  0  0  0
    2.2690    2.5000    0.0000 O   0  0  0  0  0  0  0  0  0  0  0  0
    5.7331    3.5000    0.0000 O   0  0  0  0  0  0  0  0  0  0  0  0
    4.8671    5.0000    0.0000 O   0  0  0  0  0  0  0  0  0  0  0  0
    0.5369    3.5000    0.0000 N   0  0  0  0  0  0  0  0  0  0  0  0
    3.1350    4.0000    0.0000 C   0  0  0  0  0  0  0  0  0  0  0  0
    4.0010    3.5000    0.0000 C   0  0  0  0  0  0  0  0  0  0  0  0
    2.2690    3.5000    0.0000 C   0  0  0  0  0  0  0  0  0  0  0  0
    1.4030    4.0000    0.0000 C   0  0  0  0  0  0  0  0  0  0  0  0
    4.8671    4.0000    0.0000 C   0  0  0  0  0  0  0  0  0  0  0  0
    3.5335    4.4750    0.0000 H   0  0  0  0  0  0  0  0  0  0  0  0
    2.7365    4.4750    0.0000 H   0  0  0  0  0  0  0  0  0  0  0  0
    3.6025    3.0251    0.0000 H   0  0  0  0  0  0  0  0  0  0  0  0
    4.3996    3.0251    0.0000 H   0  0  0  0  0  0  0  0  0  0  0  0
    1.8015    4.4750    0.0000 H   0  0  0  0  0  0  0  0  0  0  0  0
    1.0044    4.4750    0.0000 H   0  0  0  0  0  0  0  0  0  0  0  0
    0.0000    3.8100    0.0000 H   0  0  0  0  0  0  0  0  0  0  0  0
    0.5369    2.8800    0.0000 H   0  0  0  0  0  0  0  0  0  0  0  0
    6.2700    3.8100    0.0000 H   0  0  0  0  0  0  0  0  0  0  0  0
    3.6350    0.0000    0.0000 H   0  0  0  0  0  0  0  0  0  0  0  0
  1 20  1  0  0  0  0
  2  8  2  0  0  0  0
  3 10  1  0  0  0  0
  3 19  1  0  0  0  0
  4 10  2  0  0  0  0
  5  9  1  0  0  0  0
  5 17  1  0  0  0  0
  5 18  1  0  0  0  0
  6  7  1  0  0  0  0
  6  8  1  0  0  0  0
  6 11  1  0  0  0  0
  6 12  1  0  0  0  0
  7 10  1  0  0  0  0
  7 13  1  0  0  0  0
  7 14  1  0  0  0  0
  8  9  1  0  0  0  0
  9 15  1  0  0  0  0
  9 16  1  0  0  0  0
M  END
> <PUBCHEM_COMPOUND_CID>
123608

> <PUBCHEM_COMPOUND_CANONICALIZED>
1

> <PUBCHEM_CACTVS_COMPLEXITY>
121

> <PUBCHEM_CACTVS_HBOND_ACCEPTOR>
4

> <PUBCHEM_CACTVS_HBOND_DONOR>
3

> <PUBCHEM_CACTVS_ROTATABLE_BOND>
4

> <PUBCHEM_CACTVS_SUBSKEYS>
AAADccBiMAAEAAAAAAAAAAAAAAAAAAAAAAAAAAAAAAAAAAAAAAAAHgAQCAAACATBgAQACABAAgAIAICQCAAAAAAAAAAAAIGAAAAAABIAgAAAQAAEAAAAAACbEQAAAAAAAAAAAAAAAAAAAAAAAAAAAAAAAA==

> <PUBCHEM_IUPAC_OPENEYE_NAME>
5-amino-4-oxo-pentanoic acid;hydrochloride

> <PUBCHEM_IUPAC_CAS_NAME>
5-amino-4-oxopentanoic acid;hydrochloride

> <PUBCHEM_IUPAC_NAME_MARKUP>
5-amino-4-oxopentanoic acid;hydrochloride

> <PUBCHEM_IUPAC_NAME>
5-amino-4-oxopentanoic acid;hydrochloride

> <PUBCHEM_IUPAC_SYSTEMATIC_NAME>
5-azanyl-4-oxidanylidene-pentanoic acid;hydrochloride

> <PUBCHEM_IUPAC_TRADITIONAL_NAME>
5-amino-4-keto-valeric acid;hydrochloride

> <PUBCHEM_IUPAC_INCHI>
InChI=1S/C5H9NO3.ClH/c6-3-4(7)1-2-5(8)9;/h1-3,6H2,(H,8,9);1H

> <PUBCHEM_IUPAC_INCHIKEY>
ZLHFONARZHCSET-UHFFFAOYSA-N

> <PUBCHEM_EXACT_MASS>
167.0349209

> <PUBCHEM_MOLECULAR_FORMULA>
C5H10ClNO3

> <PUBCHEM_MOLECULAR_WEIGHT>
167.59

> <PUBCHEM_SMILES>
C(CC(=O)O)C(=O)CN.Cl

> <PUBCHEM_CONNECTIVITY_SMILES>
C(CC(=O)O)C(=O)CN.Cl

> <PUBCHEM_CACTVS_TPSA>
80.4

> <PUBCHEM_MONOISOTOPIC_WEIGHT>
167.0349209

> <PUBCHEM_TOTAL_CHARGE>
0

> <PUBCHEM_HEAVY_ATOM_COUNT>
10

> <PUBCHEM_ATOM_DEF_STEREO_COUNT>
0

> <PUBCHEM_ATOM_UDEF_STEREO_COUNT>
0

> <PUBCHEM_BOND_DEF_STEREO_COUNT>
0

> <PUBCHEM_BOND_UDEF_STEREO_COUNT>
0

> <PUBCHEM_ISOTOPIC_ATOM_COUNT>
0

> <PUBCHEM_COMPONENT_COUNT>
2

> <PUBCHEM_CACTVS_TAUTO_COUNT>
-1

> <PUBCHEM_COORDINATE_TYPE>
1
5
255

$$$$
