12541027
  -OEChem-05122608462D

 57 56  0     0  0  0  0  0  0999 V2000
    2.8660   -0.7500    0.0000 O   0  0  0  0  0  0  0  0  0  0  0  0
    3.7320   -2.2500    0.0000 O   0  0  0  0  0  0  0  0  0  0  0  0
    8.9282   -1.2500    0.0000 C   0  0  0  0  0  0  0  0  0  0  0  0
    9.7942   -0.7500    0.0000 C   0  0  0  0  0  0  0  0  0  0  0  0
    8.0622   -0.7500    0.0000 C   0  0  0  0  0  0  0  0  0  0  0  0
   10.6603   -1.2500    0.0000 C   0  0  0  0  0  0  0  0  0  0  0  0
    7.1962   -1.2500    0.0000 C   0  0  0  0  0  0  0  0  0  0  0  0
   11.5263   -0.7500    0.0000 C   0  0  0  0  0  0  0  0  0  0  0  0
    6.3301   -0.7500    0.0000 C   0  0  0  0  0  0  0  0  0  0  0  0
   12.3923   -1.2500    0.0000 C   0  0  0  0  0  0  0  0  0  0  0  0
    5.4641   -1.2500    0.0000 C   0  0  0  0  0  0  0  0  0  0  0  0
   13.2583   -0.7500    0.0000 C   0  0  0  0  0  0  0  0  0  0  0  0
    4.5981   -0.7500    0.0000 C   0  0  0  0  0  0  0  0  0  0  0  0
   14.1244   -1.2500    0.0000 C   0  0  0  0  0  0  0  0  0  0  0  0
   14.9904    0.2500    0.0000 C   0  0  0  0  0  0  0  0  0  0  0  0
   14.9904   -0.7500    0.0000 C   0  0  0  0  0  0  0  0  0  0  0  0
   15.8564    0.7500    0.0000 C   0  0  0  0  0  0  0  0  0  0  0  0
    3.7320   -1.2500    0.0000 C   0  0  0  0  0  0  0  0  0  0  0  0
   15.8564    1.7500    0.0000 C   0  0  0  0  0  0  0  0  0  0  0  0
   16.7224    2.2500    0.0000 C   0  0  0  0  0  0  0  0  0  0  0  0
    2.0000   -1.2500    0.0000 C   0  0  0  0  0  0  0  0  0  0  0  0
    8.5297   -1.7250    0.0000 H   0  0  0  0  0  0  0  0  0  0  0  0
    9.3267   -1.7250    0.0000 H   0  0  0  0  0  0  0  0  0  0  0  0
   10.1928   -0.2751    0.0000 H   0  0  0  0  0  0  0  0  0  0  0  0
    9.3957   -0.2751    0.0000 H   0  0  0  0  0  0  0  0  0  0  0  0
    8.4607   -0.2751    0.0000 H   0  0  0  0  0  0  0  0  0  0  0  0
    7.6636   -0.2751    0.0000 H   0  0  0  0  0  0  0  0  0  0  0  0
   10.2617   -1.7250    0.0000 H   0  0  0  0  0  0  0  0  0  0  0  0
   11.0588   -1.7250    0.0000 H   0  0  0  0  0  0  0  0  0  0  0  0
    6.7976   -1.7250    0.0000 H   0  0  0  0  0  0  0  0  0  0  0  0
    7.5947   -1.7250    0.0000 H   0  0  0  0  0  0  0  0  0  0  0  0
   11.9248   -0.2751    0.0000 H   0  0  0  0  0  0  0  0  0  0  0  0
   11.1278   -0.2751    0.0000 H   0  0  0  0  0  0  0  0  0  0  0  0
    6.7287   -0.2751    0.0000 H   0  0  0  0  0  0  0  0  0  0  0  0
    5.9316   -0.2751    0.0000 H   0  0  0  0  0  0  0  0  0  0  0  0
   11.9938   -1.7250    0.0000 H   0  0  0  0  0  0  0  0  0  0  0  0
   12.7908   -1.7250    0.0000 H   0  0  0  0  0  0  0  0  0  0  0  0
    5.0656   -1.7250    0.0000 H   0  0  0  0  0  0  0  0  0  0  0  0
    5.8626   -1.7250    0.0000 H   0  0  0  0  0  0  0  0  0  0  0  0
   13.6569   -0.2751    0.0000 H   0  0  0  0  0  0  0  0  0  0  0  0
   12.8598   -0.2751    0.0000 H   0  0  0  0  0  0  0  0  0  0  0  0
    4.9966   -0.2751    0.0000 H   0  0  0  0  0  0  0  0  0  0  0  0
    4.1996   -0.2751    0.0000 H   0  0  0  0  0  0  0  0  0  0  0  0
   14.1244   -1.8700    0.0000 H   0  0  0  0  0  0  0  0  0  0  0  0
   14.7783    0.8326    0.0000 H   0  0  0  0  0  0  0  0  0  0  0  0
   14.3798    0.1423    0.0000 H   0  0  0  0  0  0  0  0  0  0  0  0
   15.5273   -1.0600    0.0000 H   0  0  0  0  0  0  0  0  0  0  0  0
   16.0685    0.1674    0.0000 H   0  0  0  0  0  0  0  0  0  0  0  0
   16.4670    0.8577    0.0000 H   0  0  0  0  0  0  0  0  0  0  0  0
   15.6444    2.3326    0.0000 H   0  0  0  0  0  0  0  0  0  0  0  0
   15.2458    1.6423    0.0000 H   0  0  0  0  0  0  0  0  0  0  0  0
   17.0324    1.7131    0.0000 H   0  0  0  0  0  0  0  0  0  0  0  0
   17.2594    2.5600    0.0000 H   0  0  0  0  0  0  0  0  0  0  0  0
   16.4124    2.7869    0.0000 H   0  0  0  0  0  0  0  0  0  0  0  0
    1.6900   -0.7131    0.0000 H   0  0  0  0  0  0  0  0  0  0  0  0
    1.4631   -1.5600    0.0000 H   0  0  0  0  0  0  0  0  0  0  0  0
    2.3100   -1.7869    0.0000 H   0  0  0  0  0  0  0  0  0  0  0  0
  1 18  1  0  0  0  0
  1 21  1  0  0  0  0
  2 18  2  0  0  0  0
  3  4  1  0  0  0  0
  3  5  1  0  0  0  0
  3 22  1  0  0  0  0
  3 23  1  0  0  0  0
  4  6  1  0  0  0  0
  4 24  1  0  0  0  0
  4 25  1  0  0  0  0
  5  7  1  0  0  0  0
  5 26  1  0  0  0  0
  5 27  1  0  0  0  0
  6  8  1  0  0  0  0
  6 28  1  0  0  0  0
  6 29  1  0  0  0  0
  7  9  1  0  0  0  0
  7 30  1  0  0  0  0
  7 31  1  0  0  0  0
  8 10  1  0  0  0  0
  8 32  1  0  0  0  0
  8 33  1  0  0  0  0
  9 11  1  0  0  0  0
  9 34  1  0  0  0  0
  9 35  1  0  0  0  0
 10 12  1  0  0  0  0
 10 36  1  0  0  0  0
 10 37  1  0  0  0  0
 11 13  1  0  0  0  0
 11 38  1  0  0  0  0
 11 39  1  0  0  0  0
 12 14  1  0  0  0  0
 12 40  1  0  0  0  0
 12 41  1  0  0  0  0
 13 18  1  0  0  0  0
 13 42  1  0  0  0  0
 13 43  1  0  0  0  0
 14 16  2  0  0  0  0
 14 44  1  0  0  0  0
 15 16  1  0  0  0  0
 15 17  1  0  0  0  0
 15 45  1  0  0  0  0
 15 46  1  0  0  0  0
 16 47  1  0  0  0  0
 17 19  1  0  0  0  0
 17 48  1  0  0  0  0
 17 49  1  0  0  0  0
 19 20  1  0  0  0  0
 19 50  1  0  0  0  0
 19 51  1  0  0  0  0
 20 52  1  0  0  0  0
 20 53  1  0  0  0  0
 20 54  1  0  0  0  0
 21 55  1  0  0  0  0
 21 56  1  0  0  0  0
 21 57  1  0  0  0  0
M  END
> <PUBCHEM_COMPOUND_CID>
12541027

> <PUBCHEM_COMPOUND_CANONICALIZED>
1

> <PUBCHEM_CACTVS_COMPLEXITY>
246

> <PUBCHEM_CACTVS_HBOND_ACCEPTOR>
2

> <PUBCHEM_CACTVS_HBOND_DONOR>
0

> <PUBCHEM_CACTVS_ROTATABLE_BOND>
16

> <PUBCHEM_CACTVS_SUBSKEYS>
AAADcfB4MAAAAAAAAAAAAAAAAAAAAAAAAAAAAAAAAAAAAAAAAAAAGgAAAAAACACAgAICCAAABACIACDSCAAAAAAgAAAICAEAAAgAABIAAQAAAAAEgAAIAAOIyKCAAAAAAAAAAAAAAAAAAAAAAAAAAAAAAA==

> <PUBCHEM_IUPAC_OPENEYE_NAME>
methyl (Z)-octadec-13-enoate

> <PUBCHEM_IUPAC_CAS_NAME>
(Z)-13-octadecenoic acid methyl ester

> <PUBCHEM_IUPAC_NAME_MARKUP>
methyl (<I>Z</I>)-octadec-13-enoate

> <PUBCHEM_IUPAC_NAME>
methyl (Z)-octadec-13-enoate

> <PUBCHEM_IUPAC_SYSTEMATIC_NAME>
methyl (Z)-octadec-13-enoate

> <PUBCHEM_IUPAC_TRADITIONAL_NAME>
(Z)-octadec-13-enoic acid methyl ester

> <PUBCHEM_IUPAC_INCHI>
InChI=1S/C19H36O2/c1-3-4-5-6-7-8-9-10-11-12-13-14-15-16-17-18-19(20)21-2/h6-7H,3-5,8-18H2,1-2H3/b7-6-

> <PUBCHEM_IUPAC_INCHIKEY>
OPLQDSJPOHPOSZ-SREVYHEPSA-N

> <PUBCHEM_XLOGP3_AA>
7.6

> <PUBCHEM_EXACT_MASS>
296.271530387

> <PUBCHEM_MOLECULAR_FORMULA>
C19H36O2

> <PUBCHEM_MOLECULAR_WEIGHT>
296.5

> <PUBCHEM_SMILES>
CCCC/C=C\CCCCCCCCCCCC(=O)OC

> <PUBCHEM_CONNECTIVITY_SMILES>
CCCCC=CCCCCCCCCCCCC(=O)OC

> <PUBCHEM_CACTVS_TPSA>
26.3

> <PUBCHEM_MONOISOTOPIC_WEIGHT>
296.271530387

> <PUBCHEM_TOTAL_CHARGE>
0

> <PUBCHEM_HEAVY_ATOM_COUNT>
21

> <PUBCHEM_ATOM_DEF_STEREO_COUNT>
0

> <PUBCHEM_ATOM_UDEF_STEREO_COUNT>
0

> <PUBCHEM_BOND_DEF_STEREO_COUNT>
1

> <PUBCHEM_BOND_UDEF_STEREO_COUNT>
0

> <PUBCHEM_ISOTOPIC_ATOM_COUNT>
0

> <PUBCHEM_COMPONENT_COUNT>
1

> <PUBCHEM_CACTVS_TAUTO_COUNT>
-1

> <PUBCHEM_COORDINATE_TYPE>
1
5
255

$$$$
