126969147
  -OEChem-05122609512D

140145  0     0  0  0  0  0  0999 V2000
    6.2502    2.1081    0.0000 O   0  0  0  0  0  0  0  0  0  0  0  0
    7.0952    1.3862    0.0000 O   0  0  0  0  0  0  0  0  0  0  0  0
    4.7229    2.3194    0.0000 O   0  0  0  0  0  0  0  0  0  0  0  0
    7.0952   -1.3862    0.0000 O   0  0  0  0  0  0  0  0  0  0  0  0
    3.7136    1.8542    0.0000 O   0  0  0  0  0  0  0  0  0  0  0  0
    6.2502   -2.1081    0.0000 O   0  0  0  0  0  0  0  0  0  0  0  0
    2.8823    0.5557    0.0000 O   0  0  0  0  0  0  0  0  0  0  0  0
    4.7229   -2.3194    0.0000 O   0  0  0  0  0  0  0  0  0  0  0  0
    2.8823   -0.5557    0.0000 O   0  0  0  0  0  0  0  0  0  0  0  0
    3.7136   -1.8542    0.0000 O   0  0  0  0  0  0  0  0  0  0  0  0
    6.4117    3.1305    0.0000 O   0  0  0  0  0  0  0  0  0  0  0  0
    8.0799    1.7055    0.0000 O   0  0  0  0  0  0  0  0  0  0  0  0
    4.8452    3.3473    0.0000 O   0  0  0  0  0  0  0  0  0  0  0  0
    8.0799   -1.7055    0.0000 O   0  0  0  0  0  0  0  0  0  0  0  0
    2.8526    2.4289    0.0000 O   0  0  0  0  0  0  0  0  0  0  0  0
    6.4117   -3.1305    0.0000 O   0  0  0  0  0  0  0  0  0  0  0  0
    2.0000    1.0970    0.0000 O   0  0  0  0  0  0  0  0  0  0  0  0
    4.8452   -3.3473    0.0000 O   0  0  0  0  0  0  0  0  0  0  0  0
    2.0000   -1.0970    0.0000 O   0  0  0  0  0  0  0  0  0  0  0  0
    2.8526   -2.4289    0.0000 O   0  0  0  0  0  0  0  0  0  0  0  0
    6.6287    1.8683    0.0000 C   0  0  0  0  0  0  0  0  0  0  0  0
    6.7992    1.7226    0.0000 C   0  0  0  0  0  0  0  0  0  0  0  0
    4.2935    2.1915    0.0000 C   0  0  0  0  0  0  0  0  0  0  0  0
    4.0898    2.0976    0.0000 C   0  0  0  0  0  0  0  0  0  0  0  0
    6.7992   -1.7226    0.0000 C   0  0  0  0  0  0  0  0  0  0  0  0
    6.6287   -1.8683    0.0000 C   0  0  0  0  0  0  0  0  0  0  0  0
    2.8188    0.1121    0.0000 C   0  0  0  0  0  0  0  0  0  0  0  0
    2.8188   -0.1121    0.0000 C   0  0  0  0  0  0  0  0  0  0  0  0
    4.2935   -2.1915    0.0000 C   0  0  0  0  0  0  0  0  0  0  0  0
    4.0898   -2.0976    0.0000 C   0  0  0  0  0  0  0  0  0  0  0  0
    6.4451    1.9972    0.0000 C   0  0  0  0  0  0  0  0  0  0  0  0
    6.9552    1.5614    0.0000 C   0  0  0  0  0  0  0  0  0  0  0  0
    4.5052    2.2656    0.0000 C   0  0  0  0  0  0  0  0  0  0  0  0
    3.8959    1.9848    0.0000 C   0  0  0  0  0  0  0  0  0  0  0  0
    6.9552   -1.5614    0.0000 C   0  0  0  0  0  0  0  0  0  0  0  0
    6.4451   -1.9972    0.0000 C   0  0  0  0  0  0  0  0  0  0  0  0
    2.8400    0.3354    0.0000 C   0  0  0  0  0  0  0  0  0  0  0  0
    2.8400   -0.3354    0.0000 C   0  0  0  0  0  0  0  0  0  0  0  0
    4.5052   -2.2656    0.0000 C   0  0  0  0  0  0  0  0  0  0  0  0
    3.8959   -1.9848    0.0000 C   0  0  0  0  0  0  0  0  0  0  0  0
    5.8332    2.2721    0.0000 C   0  0  0  0  0  0  0  0  0  0  0  0
    5.1687    2.3640    0.0000 C   0  0  0  0  0  0  0  0  0  0  0  0
    7.3223    1.0000    0.0000 C   0  0  0  0  0  0  0  0  0  0  0  0
    7.3223   -1.0000    0.0000 C   0  0  0  0  0  0  0  0  0  0  0  0
    3.3901    1.5442    0.0000 C   0  0  0  0  0  0  0  0  0  0  0  0
    3.0285    0.9792    0.0000 C   0  0  0  0  0  0  0  0  0  0  0  0
    5.8332   -2.2721    0.0000 C   0  0  0  0  0  0  0  0  0  0  0  0
    5.1687   -2.3640    0.0000 C   0  0  0  0  0  0  0  0  0  0  0  0
    3.0285   -0.9792    0.0000 C   0  0  0  0  0  0  0  0  0  0  0  0
    3.3901   -1.5442    0.0000 C   0  0  0  0  0  0  0  0  0  0  0  0
    6.0456    2.2000    0.0000 C   0  0  0  0  0  0  0  0  0  0  0  0
    7.2179    1.1985    0.0000 C   0  0  0  0  0  0  0  0  0  0  0  0
    4.9448    2.3523    0.0000 C   0  0  0  0  0  0  0  0  0  0  0  0
    7.2179   -1.1985    0.0000 C   0  0  0  0  0  0  0  0  0  0  0  0
    3.5445    1.7069    0.0000 C   0  0  0  0  0  0  0  0  0  0  0  0
    6.0456   -2.2000    0.0000 C   0  0  0  0  0  0  0  0  0  0  0  0
    2.9453    0.7709    0.0000 C   0  0  0  0  0  0  0  0  0  0  0  0
    4.9448   -2.3523    0.0000 C   0  0  0  0  0  0  0  0  0  0  0  0
    2.9453   -0.7709    0.0000 C   0  0  0  0  0  0  0  0  0  0  0  0
    3.5445   -1.7069    0.0000 C   0  0  0  0  0  0  0  0  0  0  0  0
    6.1292    3.2235    0.0000 C   0  0  0  0  0  0  0  0  0  0  0  0
    5.1422    3.3601    0.0000 C   0  0  0  0  0  0  0  0  0  0  0  0
    6.4563    0.5000    0.0000 C   0  0  0  0  0  0  0  0  0  0  0  0
    6.4563   -0.5000    0.0000 C   0  0  0  0  0  0  0  0  0  0  0  0
    3.2519    1.3676    0.0000 C   0  0  0  0  0  0  0  0  0  0  0  0
    3.1309    1.1787    0.0000 C   0  0  0  0  0  0  0  0  0  0  0  0
    5.6150   -2.3237    0.0000 C   0  0  0  0  0  0  0  0  0  0  0  0
    5.3928   -2.3545    0.0000 C   0  0  0  0  0  0  0  0  0  0  0  0
    3.1309   -1.1787    0.0000 C   0  0  0  0  0  0  0  0  0  0  0  0
    3.2519   -1.3676    0.0000 C   0  0  0  0  0  0  0  0  0  0  0  0
    5.6150    2.3237    0.0000 C   0  0  0  0  0  0  0  0  0  0  0  0
    5.3928    2.3545    0.0000 C   0  0  0  0  0  0  0  0  0  0  0  0
    8.1883    0.5000    0.0000 C   0  0  0  0  0  0  0  0  0  0  0  0
    8.1883   -0.5000    0.0000 C   0  0  0  0  0  0  0  0  0  0  0  0
    2.6500    2.2113    0.0000 C   0  0  0  0  0  0  0  0  0  0  0  0
    2.1128    1.3721    0.0000 C   0  0  0  0  0  0  0  0  0  0  0  0
    6.1292   -3.2235    0.0000 C   0  0  0  0  0  0  0  0  0  0  0  0
    5.1422   -3.3601    0.0000 C   0  0  0  0  0  0  0  0  0  0  0  0
    2.1128   -1.3721    0.0000 C   0  0  0  0  0  0  0  0  0  0  0  0
    2.6500   -2.2113    0.0000 C   0  0  0  0  0  0  0  0  0  0  0  0
    7.2063    2.0936    0.0000 H   0  0  0  0  0  0  0  0  0  0  0  0
    6.2488    1.3783    0.0000 H   0  0  0  0  0  0  0  0  0  0  0  0
    7.3956    1.8922    0.0000 H   0  0  0  0  0  0  0  0  0  0  0  0
    6.3746    1.2709    0.0000 H   0  0  0  0  0  0  0  0  0  0  0  0
    4.3892    2.8041    0.0000 H   0  0  0  0  0  0  0  0  0  0  0  0
    4.5260    1.6167    0.0000 H   0  0  0  0  0  0  0  0  0  0  0  0
    4.1270    2.7165    0.0000 H   0  0  0  0  0  0  0  0  0  0  0  0
    4.3758    1.5475    0.0000 H   0  0  0  0  0  0  0  0  0  0  0  0
    6.9315   -2.3284    0.0000 H   0  0  0  0  0  0  0  0  0  0  0  0
    6.3746   -1.2709    0.0000 H   0  0  0  0  0  0  0  0  0  0  0  0
    6.7030   -2.4838    0.0000 H   0  0  0  0  0  0  0  0  0  0  0  0
    6.2488   -1.3783    0.0000 H   0  0  0  0  0  0  0  0  0  0  0  0
    2.3025    0.4555    0.0000 H   0  0  0  0  0  0  0  0  0  0  0  0
    3.4381    0.0827    0.0000 H   0  0  0  0  0  0  0  0  0  0  0  0
    2.2723    0.1807    0.0000 H   0  0  0  0  0  0  0  0  0  0  0  0
    3.4381   -0.0827    0.0000 H   0  0  0  0  0  0  0  0  0  0  0  0
    3.7988   -2.5652    0.0000 H   0  0  0  0  0  0  0  0  0  0  0  0
    4.5260   -1.6167    0.0000 H   0  0  0  0  0  0  0  0  0  0  0  0
    3.5619   -2.4227    0.0000 H   0  0  0  0  0  0  0  0  0  0  0  0
    4.3758   -1.5475    0.0000 H   0  0  0  0  0  0  0  0  0  0  0  0
    6.9988    2.2762    0.0000 H   0  0  0  0  0  0  0  0  0  0  0  0
    6.1134    1.4734    0.0000 H   0  0  0  0  0  0  0  0  0  0  0  0
    7.5649    1.6737    0.0000 H   0  0  0  0  0  0  0  0  0  0  0  0
    6.4897    1.1519    0.0000 H   0  0  0  0  0  0  0  0  0  0  0  0
    4.6585    2.8664    0.0000 H   0  0  0  0  0  0  0  0  0  0  0  0
    4.6822    1.6715    0.0000 H   0  0  0  0  0  0  0  0  0  0  0  0
    3.8743    2.6045    0.0000 H   0  0  0  0  0  0  0  0  0  0  0  0
    4.2327    1.4643    0.0000 H   0  0  0  0  0  0  0  0  0  0  0  0
    7.1443   -2.1519    0.0000 H   0  0  0  0  0  0  0  0  0  0  0  0
    6.4897   -1.1519    0.0000 H   0  0  0  0  0  0  0  0  0  0  0  0
    6.4607   -2.6170    0.0000 H   0  0  0  0  0  0  0  0  0  0  0  0
    6.1134   -1.4734    0.0000 H   0  0  0  0  0  0  0  0  0  0  0  0
    2.3586    0.7261    0.0000 H   0  0  0  0  0  0  0  0  0  0  0  0
    3.4538    0.2474    0.0000 H   0  0  0  0  0  0  0  0  0  0  0  0
    2.2683   -0.0957    0.0000 H   0  0  0  0  0  0  0  0  0  0  0  0
    3.4538   -0.2474    0.0000 H   0  0  0  0  0  0  0  0  0  0  0  0
    4.0481   -2.6845    0.0000 H   0  0  0  0  0  0  0  0  0  0  0  0
    4.6822   -1.6715    0.0000 H   0  0  0  0  0  0  0  0  0  0  0  0
    3.3396   -2.2585    0.0000 H   0  0  0  0  0  0  0  0  0  0  0  0
    4.2327   -1.4643    0.0000 H   0  0  0  0  0  0  0  0  0  0  0  0
    6.6526    3.5559    0.0000 H   0  0  0  0  0  0  0  0  0  0  0  0
    4.7288    3.8221    0.0000 H   0  0  0  0  0  0  0  0  0  0  0  0
    5.9194    0.8100    0.0000 H   0  0  0  0  0  0  0  0  0  0  0  0
    5.9194   -0.8100    0.0000 H   0  0  0  0  0  0  0  0  0  0  0  0
    2.7461    1.7263    0.0000 H   0  0  0  0  0  0  0  0  0  0  0  0
    2.5935    1.4879    0.0000 H   0  0  0  0  0  0  0  0  0  0  0  0
    5.7290   -2.9332    0.0000 H   0  0  0  0  0  0  0  0  0  0  0  0
    5.4486   -2.9720    0.0000 H   0  0  0  0  0  0  0  0  0  0  0  0
    2.5935   -1.4879    0.0000 H   0  0  0  0  0  0  0  0  0  0  0  0
    2.7461   -1.7263    0.0000 H   0  0  0  0  0  0  0  0  0  0  0  0
    5.7290    2.9332    0.0000 H   0  0  0  0  0  0  0  0  0  0  0  0
    5.4486    2.9720    0.0000 H   0  0  0  0  0  0  0  0  0  0  0  0
    8.7253    0.8100    0.0000 H   0  0  0  0  0  0  0  0  0  0  0  0
    8.7253   -0.8100    0.0000 H   0  0  0  0  0  0  0  0  0  0  0  0
    2.5672    2.8257    0.0000 H   0  0  0  0  0  0  0  0  0  0  0  0
    1.5201    1.1901    0.0000 H   0  0  0  0  0  0  0  0  0  0  0  0
    6.6526   -3.5559    0.0000 H   0  0  0  0  0  0  0  0  0  0  0  0
    4.7288   -3.8221    0.0000 H   0  0  0  0  0  0  0  0  0  0  0  0
    1.5201   -1.1901    0.0000 H   0  0  0  0  0  0  0  0  0  0  0  0
    2.5672   -2.8257    0.0000 H   0  0  0  0  0  0  0  0  0  0  0  0
  1 31  1  0  0  0  0
  1 51  1  0  0  0  0
  2 32  1  0  0  0  0
  2 52  1  0  0  0  0
  3 33  1  0  0  0  0
  3 53  1  0  0  0  0
  4 35  1  0  0  0  0
  4 54  1  0  0  0  0
  5 34  1  0  0  0  0
  5 55  1  0  0  0  0
  6 36  1  0  0  0  0
  6 56  1  0  0  0  0
  7 37  1  0  0  0  0
  7 57  1  0  0  0  0
  8 39  1  0  0  0  0
  8 58  1  0  0  0  0
  9 38  1  0  0  0  0
  9 59  1  0  0  0  0
 10 40  1  0  0  0  0
 10 60  1  0  0  0  0
 11 51  2  0  0  0  0
 12 52  2  0  0  0  0
 13 53  2  0  0  0  0
 14 54  2  0  0  0  0
 15 55  2  0  0  0  0
 16 56  2  0  0  0  0
 17 57  2  0  0  0  0
 18 58  2  0  0  0  0
 19 59  2  0  0  0  0
 20 60  2  0  0  0  0
 21 22  1  0  0  0  0
 21 31  1  0  0  0  0
 21 81  1  0  0  0  0
 21 82  1  0  0  0  0
 22 32  1  0  0  0  0
 22 83  1  0  0  0  0
 22 84  1  0  0  0  0
 23 24  1  0  0  0  0
 23 33  1  0  0  0  0
 23 85  1  0  0  0  0
 23 86  1  0  0  0  0
 24 34  1  0  0  0  0
 24 87  1  0  0  0  0
 24 88  1  0  0  0  0
 25 26  1  0  0  0  0
 25 35  1  0  0  0  0
 25 89  1  0  0  0  0
 25 90  1  0  0  0  0
 26 36  1  0  0  0  0
 26 91  1  0  0  0  0
 26 92  1  0  0  0  0
 27 28  1  0  0  0  0
 27 37  1  0  0  0  0
 27 93  1  0  0  0  0
 27 94  1  0  0  0  0
 28 38  1  0  0  0  0
 28 95  1  0  0  0  0
 28 96  1  0  0  0  0
 29 30  1  0  0  0  0
 29 39  1  0  0  0  0
 29 97  1  0  0  0  0
 29 98  1  0  0  0  0
 30 40  1  0  0  0  0
 30 99  1  0  0  0  0
 30100  1  0  0  0  0
 31101  1  0  0  0  0
 31102  1  0  0  0  0
 32103  1  0  0  0  0
 32104  1  0  0  0  0
 33105  1  0  0  0  0
 33106  1  0  0  0  0
 34107  1  0  0  0  0
 34108  1  0  0  0  0
 35109  1  0  0  0  0
 35110  1  0  0  0  0
 36111  1  0  0  0  0
 36112  1  0  0  0  0
 37113  1  0  0  0  0
 37114  1  0  0  0  0
 38115  1  0  0  0  0
 38116  1  0  0  0  0
 39117  1  0  0  0  0
 39118  1  0  0  0  0
 40119  1  0  0  0  0
 40120  1  0  0  0  0
 41 51  1  0  0  0  0
 41 61  2  0  0  0  0
 41 71  1  0  0  0  0
 42 53  1  0  0  0  0
 42 62  2  0  0  0  0
 42 72  1  0  0  0  0
 43 52  1  0  0  0  0
 43 63  2  0  0  0  0
 43 73  1  0  0  0  0
 44 54  1  0  0  0  0
 44 64  2  0  0  0  0
 44 74  1  0  0  0  0
 45 55  1  0  0  0  0
 45 65  2  0  0  0  0
 45 75  1  0  0  0  0
 46 57  1  0  0  0  0
 46 66  2  0  0  0  0
 46 76  1  0  0  0  0
 47 56  1  0  0  0  0
 47 67  2  0  0  0  0
 47 77  1  0  0  0  0
 48 58  1  0  0  0  0
 48 68  2  0  0  0  0
 48 78  1  0  0  0  0
 49 59  1  0  0  0  0
 49 69  2  0  0  0  0
 49 79  1  0  0  0  0
 50 60  1  0  0  0  0
 50 70  2  0  0  0  0
 50 80  1  0  0  0  0
 61 62  1  0  0  0  0
 61121  1  0  0  0  0
 62122  1  0  0  0  0
 63 64  1  0  0  0  0
 63123  1  0  0  0  0
 64124  1  0  0  0  0
 65 66  1  0  0  0  0
 65125  1  0  0  0  0
 66126  1  0  0  0  0
 67 68  1  0  0  0  0
 67127  1  0  0  0  0
 68128  1  0  0  0  0
 69 70  1  0  0  0  0
 69129  1  0  0  0  0
 70130  1  0  0  0  0
 71 72  2  0  0  0  0
 71131  1  0  0  0  0
 72132  1  0  0  0  0
 73 74  2  0  0  0  0
 73133  1  0  0  0  0
 74134  1  0  0  0  0
 75 76  2  0  0  0  0
 75135  1  0  0  0  0
 76136  1  0  0  0  0
 77 78  2  0  0  0  0
 77137  1  0  0  0  0
 78138  1  0  0  0  0
 79 80  2  0  0  0  0
 79139  1  0  0  0  0
 80140  1  0  0  0  0
M  END
> <PUBCHEM_COMPOUND_CID>
126969147

> <PUBCHEM_COMPOUND_CANONICALIZED>
1

> <PUBCHEM_CACTVS_COMPLEXITY>
1520

> <PUBCHEM_CACTVS_HBOND_ACCEPTOR>
20

> <PUBCHEM_CACTVS_HBOND_DONOR>
0

> <PUBCHEM_CACTVS_ROTATABLE_BOND>
0

> <PUBCHEM_CACTVS_SUBSKEYS>
AAADcfB8PgAAAAAAAAAAAAAAAAAAAAAAAAAwYMGDAAAAAAABVAAAGgAAAAAADACgmAIwCIAABACIAiDSCAACAAAkAAAIiAEACMgIJjKANRiCMQAkwAEIqYfIyDCOQAAAAAAAAACAAAAAAAAAAAAAAAAAAA==

> <PUBCHEM_IUPAC_OPENEYE_NAME>
3,8,15,20,27,32,39,44,51,56-decaoxahexacyclo[56.2.2.210,13.222,25.234,37.246,49]heptaconta-1(61),10,12,22,24,34(66),35,37(65),46(64),47,49(63),58(62),59,67,69-pentadecaene-2,9,14,21,26,33,38,45,50,57-decone

> <PUBCHEM_IUPAC_CAS_NAME>
3,8,15,20,27,32,39,44,51,56-decaoxahexacyclo[56.2.2.210,13.222,25.234,37.246,49]heptaconta-1(61),10,12,22,24,34(66),35,37(65),46(64),47,49(63),58(62),59,67,69-pentadecaene-2,9,14,21,26,33,38,45,50,57-decone

> <PUBCHEM_IUPAC_NAME_MARKUP>
3,8,15,20,27,32,39,44,51,56-decaoxahexacyclo[56.2.2.2<SUP>10,13</SUP>.2<SUP>22,25</SUP>.2<SUP>34,37</SUP>.2<SUP>46,49</SUP>]heptaconta-1(61),10,12,22,24,34(66),35,37(65),46(64),47,49(63),58(62),59,67,69-pentadecaene-2,9,14,21,26,33,38,45,50,57-decone

> <PUBCHEM_IUPAC_NAME>
3,8,15,20,27,32,39,44,51,56-decaoxahexacyclo[56.2.2.210,13.222,25.234,37.246,49]heptaconta-1(61),10,12,22,24,34(66),35,37(65),46(64),47,49(63),58(62),59,67,69-pentadecaene-2,9,14,21,26,33,38,45,50,57-decone

> <PUBCHEM_IUPAC_SYSTEMATIC_NAME>
3,8,15,20,27,32,39,44,51,56-decaoxahexacyclo[56.2.2.210,13.222,25.234,37.246,49]heptaconta-1(61),10,12,22,24,34(66),35,37(65),46(64),47,49(63),58(62),59,67,69-pentadecaene-2,9,14,21,26,33,38,45,50,57-decone

> <PUBCHEM_IUPAC_TRADITIONAL_NAME>
3,8,15,20,27,32,39,44,51,56-decaoxahexacyclo[56.2.2.210,13.222,25.234,37.246,49]heptaconta-1(61),10,12,22,24,34(66),35,37(65),46(64),47,49(63),58(62),59,67,69-pentadecaene-2,9,14,21,26,33,38,45,50,57-pentaquinone

> <PUBCHEM_IUPAC_INCHI>
InChI=1S/C60H60O20/c61-51-41-11-13-43(14-12-41)53(63)73-33-3-4-35-75-55(65)45-19-21-47(22-20-45)57(67)77-37-7-8-39-79-59(69)49-27-29-50(30-28-49)60(70)80-40-10-9-38-78-58(68)48-25-23-46(24-26-48)56(66)76-36-6-5-34-74-54(64)44-17-15-42(16-18-44)52(62)72-32-2-1-31-71-51/h11-30H,1-10,31-40H2

> <PUBCHEM_IUPAC_INCHIKEY>
AYTNDRBDLBIUPZ-UHFFFAOYSA-N

> <PUBCHEM_XLOGP3_AA>
10.6

> <PUBCHEM_EXACT_MASS>
1100.36779430

> <PUBCHEM_MOLECULAR_FORMULA>
C60H60O20

> <PUBCHEM_MOLECULAR_WEIGHT>
1101.1

> <PUBCHEM_SMILES>
C1CCOC(=O)C2=CC=C(C=C2)C(=O)OCCCCOC(=O)C3=CC=C(C=C3)C(=O)OCCCCOC(=O)C4=CC=C(C=C4)C(=O)OCCCCOC(=O)C5=CC=C(C=C5)C(=O)OCCCCOC(=O)C6=CC=C(C=C6)C(=O)OC1

> <PUBCHEM_CONNECTIVITY_SMILES>
C1CCOC(=O)C2=CC=C(C=C2)C(=O)OCCCCOC(=O)C3=CC=C(C=C3)C(=O)OCCCCOC(=O)C4=CC=C(C=C4)C(=O)OCCCCOC(=O)C5=CC=C(C=C5)C(=O)OCCCCOC(=O)C6=CC=C(C=C6)C(=O)OC1

> <PUBCHEM_CACTVS_TPSA>
263

> <PUBCHEM_MONOISOTOPIC_WEIGHT>
1100.36779430

> <PUBCHEM_TOTAL_CHARGE>
0

> <PUBCHEM_HEAVY_ATOM_COUNT>
80

> <PUBCHEM_ATOM_DEF_STEREO_COUNT>
0

> <PUBCHEM_ATOM_UDEF_STEREO_COUNT>
0

> <PUBCHEM_BOND_DEF_STEREO_COUNT>
0

> <PUBCHEM_BOND_UDEF_STEREO_COUNT>
0

> <PUBCHEM_ISOTOPIC_ATOM_COUNT>
0

> <PUBCHEM_COMPONENT_COUNT>
1

> <PUBCHEM_CACTVS_TAUTO_COUNT>
-1

> <PUBCHEM_COORDINATE_TYPE>
1
5
255

> <PUBCHEM_BONDANNOTATIONS>
41  61  8
41  71  8
42  62  8
42  72  8
43  63  8
43  73  8
44  64  8
44  74  8
45  65  8
45  75  8
46  66  8
46  76  8
47  67  8
47  77  8
48  68  8
48  78  8
49  69  8
49  79  8
50  70  8
50  80  8
61  62  8
63  64  8
65  66  8
67  68  8
69  70  8
71  72  8
73  74  8
75  76  8
77  78  8
79  80  8

$$$$
