12731199
  -OEChem-05122608192D

 53 52  0     0  0  0  0  0  0999 V2000
   10.8312   -0.7990    0.0000 F   0  0  0  0  0  0  0  0  0  0  0  0
    9.8312    0.9330    0.0000 F   0  0  0  0  0  0  0  0  0  0  0  0
   10.6972    1.4330    0.0000 F   0  0  0  0  0  0  0  0  0  0  0  0
   11.6972   -0.2990    0.0000 F   0  0  0  0  0  0  0  0  0  0  0  0
    8.9651    0.4330    0.0000 F   0  0  0  0  0  0  0  0  0  0  0  0
    9.9651   -1.2990    0.0000 F   0  0  0  0  0  0  0  0  0  0  0  0
   12.5632    0.2010    0.0000 F   0  0  0  0  0  0  0  0  0  0  0  0
   11.5632    1.9330    0.0000 F   0  0  0  0  0  0  0  0  0  0  0  0
    8.0991   -0.0670    0.0000 F   0  0  0  0  0  0  0  0  0  0  0  0
    9.0991   -1.7990    0.0000 F   0  0  0  0  0  0  0  0  0  0  0  0
   13.4292    0.7010    0.0000 F   0  0  0  0  0  0  0  0  0  0  0  0
   12.4292    2.4330    0.0000 F   0  0  0  0  0  0  0  0  0  0  0  0
    7.2331   -0.5670    0.0000 F   0  0  0  0  0  0  0  0  0  0  0  0
    8.2331   -2.2990    0.0000 F   0  0  0  0  0  0  0  0  0  0  0  0
   14.2953    1.2010    0.0000 F   0  0  0  0  0  0  0  0  0  0  0  0
   13.2953    2.9330    0.0000 F   0  0  0  0  0  0  0  0  0  0  0  0
    6.3671   -1.0670    0.0000 F   0  0  0  0  0  0  0  0  0  0  0  0
    7.3671   -2.7990    0.0000 F   0  0  0  0  0  0  0  0  0  0  0  0
   15.1613    1.7010    0.0000 F   0  0  0  0  0  0  0  0  0  0  0  0
   14.1613    3.4330    0.0000 F   0  0  0  0  0  0  0  0  0  0  0  0
    5.5010   -1.5670    0.0000 F   0  0  0  0  0  0  0  0  0  0  0  0
    6.5010   -3.2990    0.0000 F   0  0  0  0  0  0  0  0  0  0  0  0
   16.0273    2.2010    0.0000 F   0  0  0  0  0  0  0  0  0  0  0  0
   15.0273    3.9330    0.0000 F   0  0  0  0  0  0  0  0  0  0  0  0
    4.6350   -2.0670    0.0000 F   0  0  0  0  0  0  0  0  0  0  0  0
    5.6350   -3.7990    0.0000 F   0  0  0  0  0  0  0  0  0  0  0  0
   16.8933    2.7010    0.0000 F   0  0  0  0  0  0  0  0  0  0  0  0
   15.8933    4.4330    0.0000 F   0  0  0  0  0  0  0  0  0  0  0  0
    3.7690   -2.5670    0.0000 F   0  0  0  0  0  0  0  0  0  0  0  0
    4.7690   -4.2990    0.0000 F   0  0  0  0  0  0  0  0  0  0  0  0
   18.1254    4.5670    0.0000 F   0  0  0  0  0  0  0  0  0  0  0  0
   17.7594    3.2010    0.0000 F   0  0  0  0  0  0  0  0  0  0  0  0
   16.7594    4.9330    0.0000 F   0  0  0  0  0  0  0  0  0  0  0  0
    2.5369   -3.4330    0.0000 O   0  0  0  0  0  0  0  0  0  0  0  0
    3.4030   -4.9330    0.0000 O   0  0  0  0  0  0  0  0  0  0  0  0
   10.3312    0.0670    0.0000 C   0  0  0  0  0  0  0  0  0  0  0  0
   11.1972    0.5670    0.0000 C   0  0  0  0  0  0  0  0  0  0  0  0
    9.4651   -0.4330    0.0000 C   0  0  0  0  0  0  0  0  0  0  0  0
   12.0632    1.0670    0.0000 C   0  0  0  0  0  0  0  0  0  0  0  0
    8.5991   -0.9330    0.0000 C   0  0  0  0  0  0  0  0  0  0  0  0
   12.9292    1.5670    0.0000 C   0  0  0  0  0  0  0  0  0  0  0  0
    7.7331   -1.4330    0.0000 C   0  0  0  0  0  0  0  0  0  0  0  0
   13.7953    2.0670    0.0000 C   0  0  0  0  0  0  0  0  0  0  0  0
    6.8671   -1.9330    0.0000 C   0  0  0  0  0  0  0  0  0  0  0  0
   14.6613    2.5670    0.0000 C   0  0  0  0  0  0  0  0  0  0  0  0
    6.0010   -2.4330    0.0000 C   0  0  0  0  0  0  0  0  0  0  0  0
   15.5273    3.0670    0.0000 C   0  0  0  0  0  0  0  0  0  0  0  0
    5.1350   -2.9330    0.0000 C   0  0  0  0  0  0  0  0  0  0  0  0
   16.3933    3.5670    0.0000 C   0  0  0  0  0  0  0  0  0  0  0  0
    4.2690   -3.4330    0.0000 C   0  0  0  0  0  0  0  0  0  0  0  0
   17.2594    4.0670    0.0000 C   0  0  0  0  0  0  0  0  0  0  0  0
    3.4030   -3.9330    0.0000 C   0  0  0  0  0  0  0  0  0  0  0  0
    2.0000   -3.7430    0.0000 H   0  0  0  0  0  0  0  0  0  0  0  0
  1 36  1  0  0  0  0
  2 36  1  0  0  0  0
  3 37  1  0  0  0  0
  4 37  1  0  0  0  0
  5 38  1  0  0  0  0
  6 38  1  0  0  0  0
  7 39  1  0  0  0  0
  8 39  1  0  0  0  0
  9 40  1  0  0  0  0
 10 40  1  0  0  0  0
 11 41  1  0  0  0  0
 12 41  1  0  0  0  0
 13 42  1  0  0  0  0
 14 42  1  0  0  0  0
 15 43  1  0  0  0  0
 16 43  1  0  0  0  0
 17 44  1  0  0  0  0
 18 44  1  0  0  0  0
 19 45  1  0  0  0  0
 20 45  1  0  0  0  0
 21 46  1  0  0  0  0
 22 46  1  0  0  0  0
 23 47  1  0  0  0  0
 24 47  1  0  0  0  0
 25 48  1  0  0  0  0
 26 48  1  0  0  0  0
 27 49  1  0  0  0  0
 28 49  1  0  0  0  0
 29 50  1  0  0  0  0
 30 50  1  0  0  0  0
 31 51  1  0  0  0  0
 32 51  1  0  0  0  0
 33 51  1  0  0  0  0
 34 52  1  0  0  0  0
 34 53  1  0  0  0  0
 35 52  2  0  0  0  0
 36 37  1  0  0  0  0
 36 38  1  0  0  0  0
 37 39  1  0  0  0  0
 38 40  1  0  0  0  0
 39 41  1  0  0  0  0
 40 42  1  0  0  0  0
 41 43  1  0  0  0  0
 42 44  1  0  0  0  0
 43 45  1  0  0  0  0
 44 46  1  0  0  0  0
 45 47  1  0  0  0  0
 46 48  1  0  0  0  0
 47 49  1  0  0  0  0
 48 50  1  0  0  0  0
 49 51  1  0  0  0  0
 50 52  1  0  0  0  0
M  END
> <PUBCHEM_COMPOUND_CID>
12731199

> <PUBCHEM_COMPOUND_CANONICALIZED>
1

> <PUBCHEM_CACTVS_COMPLEXITY>
1350

> <PUBCHEM_CACTVS_HBOND_ACCEPTOR>
35

> <PUBCHEM_CACTVS_HBOND_DONOR>
1

> <PUBCHEM_CACTVS_ROTATABLE_BOND>
15

> <PUBCHEM_CACTVS_SUBSKEYS>
AAADcQB4McAAAAAAAAAAAAAAAAAAAAAAAAAAAAAAAAAAAAAAAAAACwAACAAACAAAgBAACAAAAgAIAACQCAAAAAAAAAAAAAEAAAAAABIAAAAAQAAEAAAAAAGIyKCAAAAAAAAAAAAAAAAAAAAAAAAAAAAAAA==

> <PUBCHEM_IUPAC_OPENEYE_NAME>
2,2,3,3,4,4,5,5,6,6,7,7,8,8,9,9,10,10,11,11,12,12,13,13,14,14,15,15,16,16,17,17,17-tritriacontafluoroheptadecanoic acid

> <PUBCHEM_IUPAC_CAS_NAME>
2,2,3,3,4,4,5,5,6,6,7,7,8,8,9,9,10,10,11,11,12,12,13,13,14,14,15,15,16,16,17,17,17-tritriacontafluoroheptadecanoic acid

> <PUBCHEM_IUPAC_NAME_MARKUP>
2,2,3,3,4,4,5,5,6,6,7,7,8,8,9,9,10,10,11,11,12,12,13,13,14,14,15,15,16,16,17,17,17-tritriacontafluoroheptadecanoic acid

> <PUBCHEM_IUPAC_NAME>
2,2,3,3,4,4,5,5,6,6,7,7,8,8,9,9,10,10,11,11,12,12,13,13,14,14,15,15,16,16,17,17,17-tritriacontafluoroheptadecanoic acid

> <PUBCHEM_IUPAC_SYSTEMATIC_NAME>
2,2,3,3,4,4,5,5,6,6,7,7,8,8,9,9,10,10,11,11,12,12,13,13,14,14,15,15,16,16,17,17,17-tritriacontakis(fluoranyl)heptadecanoic acid

> <PUBCHEM_IUPAC_TRADITIONAL_NAME>
2,2,3,3,4,4,5,5,6,6,7,7,8,8,9,9,10,10,11,11,12,12,13,13,14,14,15,15,16,16,17,17,17-tritriacontafluoroheptadecanoic acid

> <PUBCHEM_IUPAC_INCHI>
InChI=1S/C17HF33O2/c18-2(19,1(51)52)3(20,21)4(22,23)5(24,25)6(26,27)7(28,29)8(30,31)9(32,33)10(34,35)11(36,37)12(38,39)13(40,41)14(42,43)15(44,45)16(46,47)17(48,49)50/h(H,51,52)

> <PUBCHEM_IUPAC_INCHIKEY>
ZAWWKRYRIHWWDN-UHFFFAOYSA-N

> <PUBCHEM_XLOGP3_AA>
11

> <PUBCHEM_EXACT_MASS>
863.9449586

> <PUBCHEM_MOLECULAR_FORMULA>
C17HF33O2

> <PUBCHEM_MOLECULAR_WEIGHT>
864.13

> <PUBCHEM_SMILES>
C(=O)(C(C(C(C(C(C(C(C(C(C(C(C(C(C(C(C(F)(F)F)(F)F)(F)F)(F)F)(F)F)(F)F)(F)F)(F)F)(F)F)(F)F)(F)F)(F)F)(F)F)(F)F)(F)F)(F)F)O

> <PUBCHEM_CONNECTIVITY_SMILES>
C(=O)(C(C(C(C(C(C(C(C(C(C(C(C(C(C(C(C(F)(F)F)(F)F)(F)F)(F)F)(F)F)(F)F)(F)F)(F)F)(F)F)(F)F)(F)F)(F)F)(F)F)(F)F)(F)F)(F)F)O

> <PUBCHEM_CACTVS_TPSA>
37.3

> <PUBCHEM_MONOISOTOPIC_WEIGHT>
863.9449586

> <PUBCHEM_TOTAL_CHARGE>
0

> <PUBCHEM_HEAVY_ATOM_COUNT>
52

> <PUBCHEM_ATOM_DEF_STEREO_COUNT>
0

> <PUBCHEM_ATOM_UDEF_STEREO_COUNT>
0

> <PUBCHEM_BOND_DEF_STEREO_COUNT>
0

> <PUBCHEM_BOND_UDEF_STEREO_COUNT>
0

> <PUBCHEM_ISOTOPIC_ATOM_COUNT>
0

> <PUBCHEM_COMPONENT_COUNT>
1

> <PUBCHEM_CACTVS_TAUTO_COUNT>
-1

> <PUBCHEM_COORDINATE_TYPE>
1
5
255

$$$$
