12942137
  -OEChem-05122608292D

 60 59  0     0  0  0  0  0  0999 V2000
    4.2690   -1.3450    0.0000 O   0  0  0  0  0  0  0  0  0  0  0  0
    2.5369    1.6550    0.0000 O   0  0  0  0  0  0  0  0  0  0  0  0
    5.1350    1.1550    0.0000 N   0  0  0  0  0  0  0  0  0  0  0  0
    9.4651    1.6550    0.0000 C   0  0  0  0  0  0  0  0  0  0  0  0
   10.3312    1.1550    0.0000 C   0  0  0  0  0  0  0  0  0  0  0  0
    8.5991    1.1550    0.0000 C   0  0  0  0  0  0  0  0  0  0  0  0
   11.1972    1.6550    0.0000 C   0  0  0  0  0  0  0  0  0  0  0  0
    7.7331    1.6550    0.0000 C   0  0  0  0  0  0  0  0  0  0  0  0
   12.0632    1.1550    0.0000 C   0  0  0  0  0  0  0  0  0  0  0  0
    6.8671    1.1550    0.0000 C   0  0  0  0  0  0  0  0  0  0  0  0
   12.9292    1.6550    0.0000 C   0  0  0  0  0  0  0  0  0  0  0  0
   13.7953    1.1550    0.0000 C   0  0  0  0  0  0  0  0  0  0  0  0
    6.0010    1.6550    0.0000 C   0  0  0  0  0  0  0  0  0  0  0  0
   14.6613    1.6550    0.0000 C   0  0  0  0  0  0  0  0  0  0  0  0
   15.5273    1.1550    0.0000 C   0  0  0  0  0  0  0  0  0  0  0  0
    5.1350    0.1550    0.0000 C   0  0  0  0  0  0  0  0  0  0  0  0
    4.2690    1.6550    0.0000 C   0  0  0  0  0  0  0  0  0  0  0  0
   16.3933    1.6550    0.0000 C   0  0  0  0  0  0  0  0  0  0  0  0
    4.2690   -0.3450    0.0000 C   0  0  0  0  0  0  0  0  0  0  0  0
    3.4030    1.1550    0.0000 C   0  0  0  0  0  0  0  0  0  0  0  0
   17.2594    1.1550    0.0000 C   0  0  0  0  0  0  0  0  0  0  0  0
    9.8637    2.1300    0.0000 H   0  0  0  0  0  0  0  0  0  0  0  0
    9.0666    2.1300    0.0000 H   0  0  0  0  0  0  0  0  0  0  0  0
    9.9326    0.6801    0.0000 H   0  0  0  0  0  0  0  0  0  0  0  0
   10.7297    0.6801    0.0000 H   0  0  0  0  0  0  0  0  0  0  0  0
    8.2006    0.6801    0.0000 H   0  0  0  0  0  0  0  0  0  0  0  0
    8.9976    0.6801    0.0000 H   0  0  0  0  0  0  0  0  0  0  0  0
   11.5957    2.1300    0.0000 H   0  0  0  0  0  0  0  0  0  0  0  0
   10.7987    2.1300    0.0000 H   0  0  0  0  0  0  0  0  0  0  0  0
    8.1316    2.1300    0.0000 H   0  0  0  0  0  0  0  0  0  0  0  0
    7.3346    2.1300    0.0000 H   0  0  0  0  0  0  0  0  0  0  0  0
   11.6647    0.6801    0.0000 H   0  0  0  0  0  0  0  0  0  0  0  0
   12.4617    0.6801    0.0000 H   0  0  0  0  0  0  0  0  0  0  0  0
    6.4685    0.6801    0.0000 H   0  0  0  0  0  0  0  0  0  0  0  0
    7.2656    0.6801    0.0000 H   0  0  0  0  0  0  0  0  0  0  0  0
   13.3278    2.1300    0.0000 H   0  0  0  0  0  0  0  0  0  0  0  0
   12.5307    2.1300    0.0000 H   0  0  0  0  0  0  0  0  0  0  0  0
    6.3996    2.1300    0.0000 H   0  0  0  0  0  0  0  0  0  0  0  0
    5.6025    2.1300    0.0000 H   0  0  0  0  0  0  0  0  0  0  0  0
   13.3967    0.6801    0.0000 H   0  0  0  0  0  0  0  0  0  0  0  0
   14.1938    0.6801    0.0000 H   0  0  0  0  0  0  0  0  0  0  0  0
   15.0598    2.1300    0.0000 H   0  0  0  0  0  0  0  0  0  0  0  0
   14.2628    2.1300    0.0000 H   0  0  0  0  0  0  0  0  0  0  0  0
   15.1288    0.6801    0.0000 H   0  0  0  0  0  0  0  0  0  0  0  0
   15.9258    0.6801    0.0000 H   0  0  0  0  0  0  0  0  0  0  0  0
    5.3471   -0.4276    0.0000 H   0  0  0  0  0  0  0  0  0  0  0  0
    5.7456    0.2627    0.0000 H   0  0  0  0  0  0  0  0  0  0  0  0
    4.6675    2.1300    0.0000 H   0  0  0  0  0  0  0  0  0  0  0  0
    3.8705    2.1300    0.0000 H   0  0  0  0  0  0  0  0  0  0  0  0
   16.7919    2.1300    0.0000 H   0  0  0  0  0  0  0  0  0  0  0  0
   15.9948    2.1300    0.0000 H   0  0  0  0  0  0  0  0  0  0  0  0
    4.0569    0.2376    0.0000 H   0  0  0  0  0  0  0  0  0  0  0  0
    3.6584   -0.4527    0.0000 H   0  0  0  0  0  0  0  0  0  0  0  0
    3.0044    0.6801    0.0000 H   0  0  0  0  0  0  0  0  0  0  0  0
    3.8015    0.6801    0.0000 H   0  0  0  0  0  0  0  0  0  0  0  0
   16.9494    0.6181    0.0000 H   0  0  0  0  0  0  0  0  0  0  0  0
   17.7963    0.8450    0.0000 H   0  0  0  0  0  0  0  0  0  0  0  0
   17.5694    1.6919    0.0000 H   0  0  0  0  0  0  0  0  0  0  0  0
    3.7321   -1.6550    0.0000 H   0  0  0  0  0  0  0  0  0  0  0  0
    2.0000    1.3450    0.0000 H   0  0  0  0  0  0  0  0  0  0  0  0
  1 19  1  0  0  0  0
  1 59  1  0  0  0  0
  2 20  1  0  0  0  0
  2 60  1  0  0  0  0
  3 13  1  0  0  0  0
  3 16  1  0  0  0  0
  3 17  1  0  0  0  0
  4  5  1  0  0  0  0
  4  6  1  0  0  0  0
  4 22  1  0  0  0  0
  4 23  1  0  0  0  0
  5  7  1  0  0  0  0
  5 24  1  0  0  0  0
  5 25  1  0  0  0  0
  6  8  1  0  0  0  0
  6 26  1  0  0  0  0
  6 27  1  0  0  0  0
  7  9  1  0  0  0  0
  7 28  1  0  0  0  0
  7 29  1  0  0  0  0
  8 10  1  0  0  0  0
  8 30  1  0  0  0  0
  8 31  1  0  0  0  0
  9 11  1  0  0  0  0
  9 32  1  0  0  0  0
  9 33  1  0  0  0  0
 10 13  1  0  0  0  0
 10 34  1  0  0  0  0
 10 35  1  0  0  0  0
 11 12  1  0  0  0  0
 11 36  1  0  0  0  0
 11 37  1  0  0  0  0
 12 14  1  0  0  0  0
 12 40  1  0  0  0  0
 12 41  1  0  0  0  0
 13 38  1  0  0  0  0
 13 39  1  0  0  0  0
 14 15  1  0  0  0  0
 14 42  1  0  0  0  0
 14 43  1  0  0  0  0
 15 18  1  0  0  0  0
 15 44  1  0  0  0  0
 15 45  1  0  0  0  0
 16 19  1  0  0  0  0
 16 46  1  0  0  0  0
 16 47  1  0  0  0  0
 17 20  1  0  0  0  0
 17 48  1  0  0  0  0
 17 49  1  0  0  0  0
 18 21  1  0  0  0  0
 18 50  1  0  0  0  0
 18 51  1  0  0  0  0
 19 52  1  0  0  0  0
 19 53  1  0  0  0  0
 20 54  1  0  0  0  0
 20 55  1  0  0  0  0
 21 56  1  0  0  0  0
 21 57  1  0  0  0  0
 21 58  1  0  0  0  0
M  END
> <PUBCHEM_COMPOUND_CID>
12942137

> <PUBCHEM_COMPOUND_CANONICALIZED>
1

> <PUBCHEM_CACTVS_COMPLEXITY>
182

> <PUBCHEM_CACTVS_HBOND_ACCEPTOR>
3

> <PUBCHEM_CACTVS_HBOND_DONOR>
2

> <PUBCHEM_CACTVS_ROTATABLE_BOND>
17

> <PUBCHEM_CACTVS_SUBSKEYS>
AAADcfB6MAAAAAAAAAAAAAAAAAAAAAAAAAAAAAAAAAAAAAAAAAAAHgAACAAACADhgAYCAAMAAgAAAAAAAAAAAAAAAAAAAAAIAAACEAIAgAAEAAAAAACQAAEQgIAAAAAAAAAAAAAAAAAAAAAAAAAAAAAAAA==

> <PUBCHEM_IUPAC_OPENEYE_NAME>
2-[2-hydroxyethyl(tetradecyl)amino]ethanol

> <PUBCHEM_IUPAC_CAS_NAME>
2-[2-hydroxyethyl(tetradecyl)amino]ethanol

> <PUBCHEM_IUPAC_NAME_MARKUP>
2-[2-hydroxyethyl(tetradecyl)amino]ethanol

> <PUBCHEM_IUPAC_NAME>
2-[2-hydroxyethyl(tetradecyl)amino]ethanol

> <PUBCHEM_IUPAC_SYSTEMATIC_NAME>
2-[2-hydroxyethyl(tetradecyl)amino]ethanol

> <PUBCHEM_IUPAC_TRADITIONAL_NAME>
2-[2-hydroxyethyl(myristyl)amino]ethanol

> <PUBCHEM_IUPAC_INCHI>
InChI=1S/C18H39NO2/c1-2-3-4-5-6-7-8-9-10-11-12-13-14-19(15-17-20)16-18-21/h20-21H,2-18H2,1H3

> <PUBCHEM_IUPAC_INCHIKEY>
CPHJEACXPATRSU-UHFFFAOYSA-N

> <PUBCHEM_XLOGP3_AA>
5.6

> <PUBCHEM_EXACT_MASS>
301.298079487

> <PUBCHEM_MOLECULAR_FORMULA>
C18H39NO2

> <PUBCHEM_MOLECULAR_WEIGHT>
301.5

> <PUBCHEM_SMILES>
CCCCCCCCCCCCCCN(CCO)CCO

> <PUBCHEM_CONNECTIVITY_SMILES>
CCCCCCCCCCCCCCN(CCO)CCO

> <PUBCHEM_CACTVS_TPSA>
43.7

> <PUBCHEM_MONOISOTOPIC_WEIGHT>
301.298079487

> <PUBCHEM_TOTAL_CHARGE>
0

> <PUBCHEM_HEAVY_ATOM_COUNT>
21

> <PUBCHEM_ATOM_DEF_STEREO_COUNT>
0

> <PUBCHEM_ATOM_UDEF_STEREO_COUNT>
0

> <PUBCHEM_BOND_DEF_STEREO_COUNT>
0

> <PUBCHEM_BOND_UDEF_STEREO_COUNT>
0

> <PUBCHEM_ISOTOPIC_ATOM_COUNT>
0

> <PUBCHEM_COMPONENT_COUNT>
1

> <PUBCHEM_CACTVS_TAUTO_COUNT>
-1

> <PUBCHEM_COORDINATE_TYPE>
1
5
255

$$$$
