129850442
  -OEChem-05122609482D

120120  0     0  0  0  0  0  0999 V2000
   16.9710   -3.8224    0.0000 O   0  0  0  0  0  0  0  0  0  0  0  0
   17.9298    0.9979    0.0000 O   0  0  0  0  0  0  0  0  0  0  0  0
   11.3482   -7.5795    0.0000 O   0  0  0  0  0  0  0  0  0  0  0  0
   14.1728    6.6207    0.0000 O   0  0  0  0  0  0  0  0  0  0  0  0
    6.5279   -6.6207    0.0000 O   0  0  0  0  0  0  0  0  0  0  0  0
    9.3525    7.5795    0.0000 O   0  0  0  0  0  0  0  0  0  0  0  0
    2.7708   -0.9979    0.0000 O   0  0  0  0  0  0  0  0  0  0  0  0
    3.7296    3.8224    0.0000 O   0  0  0  0  0  0  0  0  0  0  0  0
   17.2088   -5.2627    0.0000 O   0  0  0  0  0  0  0  0  0  0  0  0
   18.7007    2.2375    0.0000 O   0  0  0  0  0  0  0  0  0  0  0  0
   12.5878   -8.3503    0.0000 O   0  0  0  0  0  0  0  0  0  0  0  0
   15.6130    6.8585    0.0000 O   0  0  0  0  0  0  0  0  0  0  0  0
    5.0876   -6.8585    0.0000 O   0  0  0  0  0  0  0  0  0  0  0  0
    8.1129    8.3503    0.0000 O   0  0  0  0  0  0  0  0  0  0  0  0
    2.0000   -2.2375    0.0000 O   0  0  0  0  0  0  0  0  0  0  0  0
    3.4919    5.2627    0.0000 O   0  0  0  0  0  0  0  0  0  0  0  0
   15.0042   -6.0651    0.0000 C   0  0  0  0  0  0  0  0  0  0  0  0
   14.1728   -6.6207    0.0000 C   0  0  0  0  0  0  0  0  0  0  0  0
   16.9710    3.8224    0.0000 C   0  0  0  0  0  0  0  0  0  0  0  0
   16.4154    4.6539    0.0000 C   0  0  0  0  0  0  0  0  0  0  0  0
    4.2852   -4.6539    0.0000 C   0  0  0  0  0  0  0  0  0  0  0  0
    3.7296   -3.8224    0.0000 C   0  0  0  0  0  0  0  0  0  0  0  0
    6.5279    6.6207    0.0000 C   0  0  0  0  0  0  0  0  0  0  0  0
    5.6964    6.0651    0.0000 C   0  0  0  0  0  0  0  0  0  0  0  0
   15.7561   -5.4058    0.0000 C   0  0  0  0  0  0  0  0  0  0  0  0
   13.2759   -7.0630    0.0000 C   0  0  0  0  0  0  0  0  0  0  0  0
   17.4133    2.9256    0.0000 C   0  0  0  0  0  0  0  0  0  0  0  0
   15.7561    5.4058    0.0000 C   0  0  0  0  0  0  0  0  0  0  0  0
    4.9446   -5.4058    0.0000 C   0  0  0  0  0  0  0  0  0  0  0  0
    3.2874   -2.9256    0.0000 C   0  0  0  0  0  0  0  0  0  0  0  0
    7.4248    7.0630    0.0000 C   0  0  0  0  0  0  0  0  0  0  0  0
    4.9446    5.4058    0.0000 C   0  0  0  0  0  0  0  0  0  0  0  0
   17.7347   -1.9786    0.0000 C   0  0  0  0  0  0  0  0  0  0  0  0
   17.9298   -0.9979    0.0000 C   0  0  0  0  0  0  0  0  0  0  0  0
    9.3525   -7.5795    0.0000 C   0  0  0  0  0  0  0  0  0  0  0  0
    8.3717   -7.3844    0.0000 C   0  0  0  0  0  0  0  0  0  0  0  0
   12.3290    7.3844    0.0000 C   0  0  0  0  0  0  0  0  0  0  0  0
   11.3482    7.5795    0.0000 C   0  0  0  0  0  0  0  0  0  0  0  0
    2.7708    0.9979    0.0000 C   0  0  0  0  0  0  0  0  0  0  0  0
    2.9659    1.9786    0.0000 C   0  0  0  0  0  0  0  0  0  0  0  0
   17.4133   -2.9256    0.0000 C   0  0  0  0  0  0  0  0  0  0  0  0
   17.9952    0.0000    0.0000 C   0  0  0  0  0  0  0  0  0  0  0  0
   10.3503   -7.6449    0.0000 C   0  0  0  0  0  0  0  0  0  0  0  0
    7.4248   -7.0630    0.0000 C   0  0  0  0  0  0  0  0  0  0  0  0
   13.2759    7.0630    0.0000 C   0  0  0  0  0  0  0  0  0  0  0  0
   10.3503    7.6449    0.0000 C   0  0  0  0  0  0  0  0  0  0  0  0
    2.7054   -0.0000    0.0000 C   0  0  0  0  0  0  0  0  0  0  0  0
    3.2874    2.9256    0.0000 C   0  0  0  0  0  0  0  0  0  0  0  0
   16.4154   -4.6539    0.0000 C   0  0  0  0  0  0  0  0  0  0  0  0
   17.7347    1.9786    0.0000 C   0  0  0  0  0  0  0  0  0  0  0  0
   12.3290   -7.3844    0.0000 C   0  0  0  0  0  0  0  0  0  0  0  0
   15.0042    6.0651    0.0000 C   0  0  0  0  0  0  0  0  0  0  0  0
    5.6964   -6.0651    0.0000 C   0  0  0  0  0  0  0  0  0  0  0  0
    8.3717    7.3844    0.0000 C   0  0  0  0  0  0  0  0  0  0  0  0
    2.9659   -1.9786    0.0000 C   0  0  0  0  0  0  0  0  0  0  0  0
    4.2852    4.6539    0.0000 C   0  0  0  0  0  0  0  0  0  0  0  0
   15.0717   -6.6814    0.0000 H   0  0  0  0  0  0  0  0  0  0  0  0
   14.6268   -5.5732    0.0000 H   0  0  0  0  0  0  0  0  0  0  0  0
   14.1592   -7.2405    0.0000 H   0  0  0  0  0  0  0  0  0  0  0  0
   13.8628   -6.0837    0.0000 H   0  0  0  0  0  0  0  0  0  0  0  0
   17.5909    3.8089    0.0000 H   0  0  0  0  0  0  0  0  0  0  0  0
   16.4341    3.5124    0.0000 H   0  0  0  0  0  0  0  0  0  0  0  0
   17.0317    4.7214    0.0000 H   0  0  0  0  0  0  0  0  0  0  0  0
   15.9235    4.2765    0.0000 H   0  0  0  0  0  0  0  0  0  0  0  0
    3.6689   -4.7214    0.0000 H   0  0  0  0  0  0  0  0  0  0  0  0
    4.7771   -4.2765    0.0000 H   0  0  0  0  0  0  0  0  0  0  0  0
    3.1098   -3.8089    0.0000 H   0  0  0  0  0  0  0  0  0  0  0  0
    4.2666   -3.5124    0.0000 H   0  0  0  0  0  0  0  0  0  0  0  0
    6.5414    7.2405    0.0000 H   0  0  0  0  0  0  0  0  0  0  0  0
    6.8379    6.0837    0.0000 H   0  0  0  0  0  0  0  0  0  0  0  0
    5.6289    6.6814    0.0000 H   0  0  0  0  0  0  0  0  0  0  0  0
    6.0738    5.5732    0.0000 H   0  0  0  0  0  0  0  0  0  0  0  0
   15.9034   -6.0080    0.0000 H   0  0  0  0  0  0  0  0  0  0  0  0
   15.3177   -4.9674    0.0000 H   0  0  0  0  0  0  0  0  0  0  0  0
   13.1816   -7.6758    0.0000 H   0  0  0  0  0  0  0  0  0  0  0  0
   13.0386   -6.4902    0.0000 H   0  0  0  0  0  0  0  0  0  0  0  0
   18.0261    2.8313    0.0000 H   0  0  0  0  0  0  0  0  0  0  0  0
   16.8405    2.6883    0.0000 H   0  0  0  0  0  0  0  0  0  0  0  0
   16.3583    5.5531    0.0000 H   0  0  0  0  0  0  0  0  0  0  0  0
   15.3177    4.9674    0.0000 H   0  0  0  0  0  0  0  0  0  0  0  0
    4.3423   -5.5531    0.0000 H   0  0  0  0  0  0  0  0  0  0  0  0
    5.3830   -4.9674    0.0000 H   0  0  0  0  0  0  0  0  0  0  0  0
    2.6746   -2.8313    0.0000 H   0  0  0  0  0  0  0  0  0  0  0  0
    3.8602   -2.6883    0.0000 H   0  0  0  0  0  0  0  0  0  0  0  0
    7.5191    7.6758    0.0000 H   0  0  0  0  0  0  0  0  0  0  0  0
    7.6620    6.4902    0.0000 H   0  0  0  0  0  0  0  0  0  0  0  0
    4.7972    6.0080    0.0000 H   0  0  0  0  0  0  0  0  0  0  0  0
    5.3830    4.9674    0.0000 H   0  0  0  0  0  0  0  0  0  0  0  0
   18.1635   -2.4265    0.0000 H   0  0  0  0  0  0  0  0  0  0  0  0
   17.1359   -1.8182    0.0000 H   0  0  0  0  0  0  0  0  0  0  0  0
   18.4133   -1.3859    0.0000 H   0  0  0  0  0  0  0  0  0  0  0  0
   17.3151   -0.9169    0.0000 H   0  0  0  0  0  0  0  0  0  0  0  0
    8.9644   -8.0630    0.0000 H   0  0  0  0  0  0  0  0  0  0  0  0
    9.4334   -6.9648    0.0000 H   0  0  0  0  0  0  0  0  0  0  0  0
    7.9238   -7.8131    0.0000 H   0  0  0  0  0  0  0  0  0  0  0  0
    8.5322   -6.7855    0.0000 H   0  0  0  0  0  0  0  0  0  0  0  0
   12.7768    7.8131    0.0000 H   0  0  0  0  0  0  0  0  0  0  0  0
   12.1685    6.7855    0.0000 H   0  0  0  0  0  0  0  0  0  0  0  0
   11.7363    8.0630    0.0000 H   0  0  0  0  0  0  0  0  0  0  0  0
   11.2673    6.9648    0.0000 H   0  0  0  0  0  0  0  0  0  0  0  0
    2.2873    1.3859    0.0000 H   0  0  0  0  0  0  0  0  0  0  0  0
    3.3855    0.9169    0.0000 H   0  0  0  0  0  0  0  0  0  0  0  0
    2.5372    2.4265    0.0000 H   0  0  0  0  0  0  0  0  0  0  0  0
    3.5648    1.8182    0.0000 H   0  0  0  0  0  0  0  0  0  0  0  0
   17.7799   -3.4256    0.0000 H   0  0  0  0  0  0  0  0  0  0  0  0
   16.8405   -2.6883    0.0000 H   0  0  0  0  0  0  0  0  0  0  0  0
   18.5253   -0.3216    0.0000 H   0  0  0  0  0  0  0  0  0  0  0  0
   17.3752    0.0000    0.0000 H   0  0  0  0  0  0  0  0  0  0  0  0
   10.0287   -8.1749    0.0000 H   0  0  0  0  0  0  0  0  0  0  0  0
   10.3503   -7.0249    0.0000 H   0  0  0  0  0  0  0  0  0  0  0  0
    6.9248   -7.4296    0.0000 H   0  0  0  0  0  0  0  0  0  0  0  0
    7.6620   -6.4902    0.0000 H   0  0  0  0  0  0  0  0  0  0  0  0
   13.7759    7.4296    0.0000 H   0  0  0  0  0  0  0  0  0  0  0  0
   13.0386    6.4902    0.0000 H   0  0  0  0  0  0  0  0  0  0  0  0
   10.6720    8.1749    0.0000 H   0  0  0  0  0  0  0  0  0  0  0  0
   10.3503    7.0249    0.0000 H   0  0  0  0  0  0  0  0  0  0  0  0
    2.1754    0.3216    0.0000 H   0  0  0  0  0  0  0  0  0  0  0  0
    3.3254   -0.0000    0.0000 H   0  0  0  0  0  0  0  0  0  0  0  0
    2.9208    3.4256    0.0000 H   0  0  0  0  0  0  0  0  0  0  0  0
    3.8602    2.6883    0.0000 H   0  0  0  0  0  0  0  0  0  0  0  0
  1 41  1  0  0  0  0
  1 49  1  0  0  0  0
  2 42  1  0  0  0  0
  2 50  1  0  0  0  0
  3 43  1  0  0  0  0
  3 51  1  0  0  0  0
  4 45  1  0  0  0  0
  4 52  1  0  0  0  0
  5 44  1  0  0  0  0
  5 53  1  0  0  0  0
  6 46  1  0  0  0  0
  6 54  1  0  0  0  0
  7 47  1  0  0  0  0
  7 55  1  0  0  0  0
  8 48  1  0  0  0  0
  8 56  1  0  0  0  0
  9 49  2  0  0  0  0
 10 50  2  0  0  0  0
 11 51  2  0  0  0  0
 12 52  2  0  0  0  0
 13 53  2  0  0  0  0
 14 54  2  0  0  0  0
 15 55  2  0  0  0  0
 16 56  2  0  0  0  0
 17 18  1  0  0  0  0
 17 25  1  0  0  0  0
 17 57  1  0  0  0  0
 17 58  1  0  0  0  0
 18 26  1  0  0  0  0
 18 59  1  0  0  0  0
 18 60  1  0  0  0  0
 19 20  1  0  0  0  0
 19 27  1  0  0  0  0
 19 61  1  0  0  0  0
 19 62  1  0  0  0  0
 20 28  1  0  0  0  0
 20 63  1  0  0  0  0
 20 64  1  0  0  0  0
 21 22  1  0  0  0  0
 21 29  1  0  0  0  0
 21 65  1  0  0  0  0
 21 66  1  0  0  0  0
 22 30  1  0  0  0  0
 22 67  1  0  0  0  0
 22 68  1  0  0  0  0
 23 24  1  0  0  0  0
 23 31  1  0  0  0  0
 23 69  1  0  0  0  0
 23 70  1  0  0  0  0
 24 32  1  0  0  0  0
 24 71  1  0  0  0  0
 24 72  1  0  0  0  0
 25 49  1  0  0  0  0
 25 73  1  0  0  0  0
 25 74  1  0  0  0  0
 26 51  1  0  0  0  0
 26 75  1  0  0  0  0
 26 76  1  0  0  0  0
 27 50  1  0  0  0  0
 27 77  1  0  0  0  0
 27 78  1  0  0  0  0
 28 52  1  0  0  0  0
 28 79  1  0  0  0  0
 28 80  1  0  0  0  0
 29 53  1  0  0  0  0
 29 81  1  0  0  0  0
 29 82  1  0  0  0  0
 30 55  1  0  0  0  0
 30 83  1  0  0  0  0
 30 84  1  0  0  0  0
 31 54  1  0  0  0  0
 31 85  1  0  0  0  0
 31 86  1  0  0  0  0
 32 56  1  0  0  0  0
 32 87  1  0  0  0  0
 32 88  1  0  0  0  0
 33 34  1  0  0  0  0
 33 41  1  0  0  0  0
 33 89  1  0  0  0  0
 33 90  1  0  0  0  0
 34 42  1  0  0  0  0
 34 91  1  0  0  0  0
 34 92  1  0  0  0  0
 35 36  1  0  0  0  0
 35 43  1  0  0  0  0
 35 93  1  0  0  0  0
 35 94  1  0  0  0  0
 36 44  1  0  0  0  0
 36 95  1  0  0  0  0
 36 96  1  0  0  0  0
 37 38  1  0  0  0  0
 37 45  1  0  0  0  0
 37 97  1  0  0  0  0
 37 98  1  0  0  0  0
 38 46  1  0  0  0  0
 38 99  1  0  0  0  0
 38100  1  0  0  0  0
 39 40  1  0  0  0  0
 39 47  1  0  0  0  0
 39101  1  0  0  0  0
 39102  1  0  0  0  0
 40 48  1  0  0  0  0
 40103  1  0  0  0  0
 40104  1  0  0  0  0
 41105  1  0  0  0  0
 41106  1  0  0  0  0
 42107  1  0  0  0  0
 42108  1  0  0  0  0
 43109  1  0  0  0  0
 43110  1  0  0  0  0
 44111  1  0  0  0  0
 44112  1  0  0  0  0
 45113  1  0  0  0  0
 45114  1  0  0  0  0
 46115  1  0  0  0  0
 46116  1  0  0  0  0
 47117  1  0  0  0  0
 47118  1  0  0  0  0
 48119  1  0  0  0  0
 48120  1  0  0  0  0
M  END
> <PUBCHEM_COMPOUND_CID>
129850442

> <PUBCHEM_COMPOUND_CANONICALIZED>
1

> <PUBCHEM_CACTVS_COMPLEXITY>
889

> <PUBCHEM_CACTVS_HBOND_ACCEPTOR>
16

> <PUBCHEM_CACTVS_HBOND_DONOR>
0

> <PUBCHEM_CACTVS_ROTATABLE_BOND>
0

> <PUBCHEM_CACTVS_SUBSKEYS>
AAADcfB8PgAAAAAAAAAAAAAAAAAAAAAAAAAAAAAAAAAAAAAAAAAAGgAAAAAACACggAIACAAABAAIAACQCAAAAAAAAAAAAAEAAAAAABIAAAACAAAEAAAAAAHISAAAAAAAAAAAAAAAAAAAAAAAAAAAAAAAAA==

> <PUBCHEM_IUPAC_OPENEYE_NAME>
1,6,13,18,25,30,37,42-octaoxacyclooctatetracontane-7,12,19,24,31,36,43,48-octone

> <PUBCHEM_IUPAC_CAS_NAME>
1,6,13,18,25,30,37,42-octaoxacyclooctatetracontane-7,12,19,24,31,36,43,48-octone

> <PUBCHEM_IUPAC_NAME_MARKUP>
1,6,13,18,25,30,37,42-octaoxacyclooctatetracontane-7,12,19,24,31,36,43,48-octone

> <PUBCHEM_IUPAC_NAME>
1,6,13,18,25,30,37,42-octaoxacyclooctatetracontane-7,12,19,24,31,36,43,48-octone

> <PUBCHEM_IUPAC_SYSTEMATIC_NAME>
1,6,13,18,25,30,37,42-octaoxacyclooctatetracontane-7,12,19,24,31,36,43,48-octone

> <PUBCHEM_IUPAC_TRADITIONAL_NAME>
1,6,13,18,25,30,37,42-octaoxacyclooctatetracontane-7,12,19,24,31,36,43,48-tetraquinone

> <PUBCHEM_IUPAC_INCHI>
InChI=1S/C40H64O16/c41-33-17-1-2-18-34(42)50-26-11-12-28-52-36(44)20-5-6-22-38(46)54-30-15-16-32-56-40(48)24-8-7-23-39(47)55-31-14-13-29-53-37(45)21-4-3-19-35(43)51-27-10-9-25-49-33/h1-32H2

> <PUBCHEM_IUPAC_INCHIKEY>
YVAFYUHCNZDFTN-UHFFFAOYSA-N

> <PUBCHEM_XLOGP3_AA>
4.3

> <PUBCHEM_EXACT_MASS>
800.41943595

> <PUBCHEM_MOLECULAR_FORMULA>
C40H64O16

> <PUBCHEM_MOLECULAR_WEIGHT>
800.9

> <PUBCHEM_SMILES>
C1CCC(=O)OCCCCOC(=O)CCCCC(=O)OCCCCOC(=O)CCCCC(=O)OCCCCOC(=O)CCCCC(=O)OCCCCOC(=O)C1

> <PUBCHEM_CONNECTIVITY_SMILES>
C1CCC(=O)OCCCCOC(=O)CCCCC(=O)OCCCCOC(=O)CCCCC(=O)OCCCCOC(=O)CCCCC(=O)OCCCCOC(=O)C1

> <PUBCHEM_CACTVS_TPSA>
210

> <PUBCHEM_MONOISOTOPIC_WEIGHT>
800.41943595

> <PUBCHEM_TOTAL_CHARGE>
0

> <PUBCHEM_HEAVY_ATOM_COUNT>
56

> <PUBCHEM_ATOM_DEF_STEREO_COUNT>
0

> <PUBCHEM_ATOM_UDEF_STEREO_COUNT>
0

> <PUBCHEM_BOND_DEF_STEREO_COUNT>
0

> <PUBCHEM_BOND_UDEF_STEREO_COUNT>
0

> <PUBCHEM_ISOTOPIC_ATOM_COUNT>
0

> <PUBCHEM_COMPONENT_COUNT>
1

> <PUBCHEM_CACTVS_TAUTO_COUNT>
-1

> <PUBCHEM_COORDINATE_TYPE>
1
5
255

$$$$
