129850444
  -OEChem-05122609482D

 90 90  0     0  0  0  0  0  0999 V2000
   13.2988   -2.8172    0.0000 O   0  0  0  0  0  0  0  0  0  0  0  0
   13.7215    2.0133    0.0000 O   0  0  0  0  0  0  0  0  0  0  0  0
    7.3344   -5.5985    0.0000 O   0  0  0  0  0  0  0  0  0  0  0  0
    8.3306    5.7880    0.0000 O   0  0  0  0  0  0  0  0  0  0  0  0
    3.3623   -2.8172    0.0000 O   0  0  0  0  0  0  0  0  0  0  0  0
    3.9359    3.7388    0.0000 O   0  0  0  0  0  0  0  0  0  0  0  0
   13.4913   -4.2792    0.0000 O   0  0  0  0  0  0  0  0  0  0  0  0
   14.1649    3.4196    0.0000 O   0  0  0  0  0  0  0  0  0  0  0  0
    8.3306   -6.6857    0.0000 O   0  0  0  0  0  0  0  0  0  0  0  0
    9.5004    6.6857    0.0000 O   0  0  0  0  0  0  0  0  0  0  0  0
    2.0000   -2.2530    0.0000 O   0  0  0  0  0  0  0  0  0  0  0  0
    2.4963    3.4196    0.0000 O   0  0  0  0  0  0  0  0  0  0  0  0
   11.1990   -4.9171    0.0000 C   0  0  0  0  0  0  0  0  0  0  0  0
   10.2927   -5.3397    0.0000 C   0  0  0  0  0  0  0  0  0  0  0  0
   12.0182    4.4459    0.0000 C   0  0  0  0  0  0  0  0  0  0  0  0
   11.1990    5.0194    0.0000 C   0  0  0  0  0  0  0  0  0  0  0  0
    2.5937    0.0512    0.0000 C   0  0  0  0  0  0  0  0  0  0  0  0
    2.6809    1.0474    0.0000 C   0  0  0  0  0  0  0  0  0  0  0  0
   12.0182   -4.3435    0.0000 C   0  0  0  0  0  0  0  0  0  0  0  0
    9.3268   -5.5985    0.0000 C   0  0  0  0  0  0  0  0  0  0  0  0
   12.7253    3.7388    0.0000 C   0  0  0  0  0  0  0  0  0  0  0  0
   10.2927    5.4421    0.0000 C   0  0  0  0  0  0  0  0  0  0  0  0
    2.6809   -0.9450    0.0000 C   0  0  0  0  0  0  0  0  0  0  0  0
    2.9397    2.0133    0.0000 C   0  0  0  0  0  0  0  0  0  0  0  0
   13.9803   -0.9450    0.0000 C   0  0  0  0  0  0  0  0  0  0  0  0
   14.0674    0.0512    0.0000 C   0  0  0  0  0  0  0  0  0  0  0  0
    5.4622   -4.9171    0.0000 C   0  0  0  0  0  0  0  0  0  0  0  0
    4.6430   -4.3435    0.0000 C   0  0  0  0  0  0  0  0  0  0  0  0
    6.3684    5.4421    0.0000 C   0  0  0  0  0  0  0  0  0  0  0  0
    5.4622    5.0194    0.0000 C   0  0  0  0  0  0  0  0  0  0  0  0
   13.7215   -1.9110    0.0000 C   0  0  0  0  0  0  0  0  0  0  0  0
   13.9803    1.0474    0.0000 C   0  0  0  0  0  0  0  0  0  0  0  0
    6.3684   -5.3397    0.0000 C   0  0  0  0  0  0  0  0  0  0  0  0
    3.9359   -3.6364    0.0000 C   0  0  0  0  0  0  0  0  0  0  0  0
    7.3344    5.7009    0.0000 C   0  0  0  0  0  0  0  0  0  0  0  0
    4.6430    4.4459    0.0000 C   0  0  0  0  0  0  0  0  0  0  0  0
   12.7253   -3.6364    0.0000 C   0  0  0  0  0  0  0  0  0  0  0  0
   13.2988    2.9196    0.0000 C   0  0  0  0  0  0  0  0  0  0  0  0
    8.3306   -5.6857    0.0000 C   0  0  0  0  0  0  0  0  0  0  0  0
    9.3268    5.7009    0.0000 C   0  0  0  0  0  0  0  0  0  0  0  0
    2.9397   -1.9110    0.0000 C   0  0  0  0  0  0  0  0  0  0  0  0
    3.3623    2.9196    0.0000 C   0  0  0  0  0  0  0  0  0  0  0  0
   11.1810   -5.5368    0.0000 H   0  0  0  0  0  0  0  0  0  0  0  0
   10.8890   -4.3802    0.0000 H   0  0  0  0  0  0  0  0  0  0  0  0
   10.1673   -5.9469    0.0000 H   0  0  0  0  0  0  0  0  0  0  0  0
   10.0806   -4.7571    0.0000 H   0  0  0  0  0  0  0  0  0  0  0  0
   12.6067    4.6409    0.0000 H   0  0  0  0  0  0  0  0  0  0  0  0
   11.6196    3.9709    0.0000 H   0  0  0  0  0  0  0  0  0  0  0  0
   11.7447    5.3137    0.0000 H   0  0  0  0  0  0  0  0  0  0  0  0
   10.8890    4.4825    0.0000 H   0  0  0  0  0  0  0  0  0  0  0  0
    2.0660    0.3767    0.0000 H   0  0  0  0  0  0  0  0  0  0  0  0
    3.2137    0.0512    0.0000 H   0  0  0  0  0  0  0  0  0  0  0  0
    2.2177    1.4595    0.0000 H   0  0  0  0  0  0  0  0  0  0  0  0
    3.2914    0.9397    0.0000 H   0  0  0  0  0  0  0  0  0  0  0  0
   12.1080   -4.9570    0.0000 H   0  0  0  0  0  0  0  0  0  0  0  0
   11.6196   -3.8686    0.0000 H   0  0  0  0  0  0  0  0  0  0  0  0
    9.0979   -6.1747    0.0000 H   0  0  0  0  0  0  0  0  0  0  0  0
    9.2191   -4.9880    0.0000 H   0  0  0  0  0  0  0  0  0  0  0  0
   13.3387    3.8286    0.0000 H   0  0  0  0  0  0  0  0  0  0  0  0
   12.2503    3.3402    0.0000 H   0  0  0  0  0  0  0  0  0  0  0  0
   10.7790    5.8266    0.0000 H   0  0  0  0  0  0  0  0  0  0  0  0
   10.0806    4.8594    0.0000 H   0  0  0  0  0  0  0  0  0  0  0  0
    2.1047   -0.7161    0.0000 H   0  0  0  0  0  0  0  0  0  0  0  0
    3.2914   -0.8374    0.0000 H   0  0  0  0  0  0  0  0  0  0  0  0
    2.5551    2.4996    0.0000 H   0  0  0  0  0  0  0  0  0  0  0  0
    3.5223    1.8012    0.0000 H   0  0  0  0  0  0  0  0  0  0  0  0
   14.4434   -1.3572    0.0000 H   0  0  0  0  0  0  0  0  0  0  0  0
   13.3697   -0.8374    0.0000 H   0  0  0  0  0  0  0  0  0  0  0  0
   14.5951   -0.2743    0.0000 H   0  0  0  0  0  0  0  0  0  0  0  0
   13.4474    0.0512    0.0000 H   0  0  0  0  0  0  0  0  0  0  0  0
    4.9164   -5.2113    0.0000 H   0  0  0  0  0  0  0  0  0  0  0  0
    5.7722   -4.3802    0.0000 H   0  0  0  0  0  0  0  0  0  0  0  0
    4.0545   -4.5385    0.0000 H   0  0  0  0  0  0  0  0  0  0  0  0
    5.0415   -3.8686    0.0000 H   0  0  0  0  0  0  0  0  0  0  0  0
    6.4938    6.0492    0.0000 H   0  0  0  0  0  0  0  0  0  0  0  0
    6.5805    4.8594    0.0000 H   0  0  0  0  0  0  0  0  0  0  0  0
    5.4802    5.6392    0.0000 H   0  0  0  0  0  0  0  0  0  0  0  0
    5.7722    4.4825    0.0000 H   0  0  0  0  0  0  0  0  0  0  0  0
   14.1060   -2.3973    0.0000 H   0  0  0  0  0  0  0  0  0  0  0  0
   13.1388   -1.6989    0.0000 H   0  0  0  0  0  0  0  0  0  0  0  0
   14.5565    0.8185    0.0000 H   0  0  0  0  0  0  0  0  0  0  0  0
   13.3697    0.9397    0.0000 H   0  0  0  0  0  0  0  0  0  0  0  0
    5.8821   -5.7242    0.0000 H   0  0  0  0  0  0  0  0  0  0  0  0
    6.5805   -4.7571    0.0000 H   0  0  0  0  0  0  0  0  0  0  0  0
    3.3224   -3.7263    0.0000 H   0  0  0  0  0  0  0  0  0  0  0  0
    4.4108   -3.2379    0.0000 H   0  0  0  0  0  0  0  0  0  0  0  0
    7.5633    6.2771    0.0000 H   0  0  0  0  0  0  0  0  0  0  0  0
    7.4420    5.0903    0.0000 H   0  0  0  0  0  0  0  0  0  0  0  0
    4.5531    5.0593    0.0000 H   0  0  0  0  0  0  0  0  0  0  0  0
    5.0415    3.9709    0.0000 H   0  0  0  0  0  0  0  0  0  0  0  0
  1 31  1  0  0  0  0
  1 37  1  0  0  0  0
  2 32  1  0  0  0  0
  2 38  1  0  0  0  0
  3 33  1  0  0  0  0
  3 39  1  0  0  0  0
  4 35  1  0  0  0  0
  4 40  1  0  0  0  0
  5 34  1  0  0  0  0
  5 41  1  0  0  0  0
  6 36  1  0  0  0  0
  6 42  1  0  0  0  0
  7 37  2  0  0  0  0
  8 38  2  0  0  0  0
  9 39  2  0  0  0  0
 10 40  2  0  0  0  0
 11 41  2  0  0  0  0
 12 42  2  0  0  0  0
 13 14  1  0  0  0  0
 13 19  1  0  0  0  0
 13 43  1  0  0  0  0
 13 44  1  0  0  0  0
 14 20  1  0  0  0  0
 14 45  1  0  0  0  0
 14 46  1  0  0  0  0
 15 16  1  0  0  0  0
 15 21  1  0  0  0  0
 15 47  1  0  0  0  0
 15 48  1  0  0  0  0
 16 22  1  0  0  0  0
 16 49  1  0  0  0  0
 16 50  1  0  0  0  0
 17 18  1  0  0  0  0
 17 23  1  0  0  0  0
 17 51  1  0  0  0  0
 17 52  1  0  0  0  0
 18 24  1  0  0  0  0
 18 53  1  0  0  0  0
 18 54  1  0  0  0  0
 19 37  1  0  0  0  0
 19 55  1  0  0  0  0
 19 56  1  0  0  0  0
 20 39  1  0  0  0  0
 20 57  1  0  0  0  0
 20 58  1  0  0  0  0
 21 38  1  0  0  0  0
 21 59  1  0  0  0  0
 21 60  1  0  0  0  0
 22 40  1  0  0  0  0
 22 61  1  0  0  0  0
 22 62  1  0  0  0  0
 23 41  1  0  0  0  0
 23 63  1  0  0  0  0
 23 64  1  0  0  0  0
 24 42  1  0  0  0  0
 24 65  1  0  0  0  0
 24 66  1  0  0  0  0
 25 26  1  0  0  0  0
 25 31  1  0  0  0  0
 25 67  1  0  0  0  0
 25 68  1  0  0  0  0
 26 32  1  0  0  0  0
 26 69  1  0  0  0  0
 26 70  1  0  0  0  0
 27 28  1  0  0  0  0
 27 33  1  0  0  0  0
 27 71  1  0  0  0  0
 27 72  1  0  0  0  0
 28 34  1  0  0  0  0
 28 73  1  0  0  0  0
 28 74  1  0  0  0  0
 29 30  1  0  0  0  0
 29 35  1  0  0  0  0
 29 75  1  0  0  0  0
 29 76  1  0  0  0  0
 30 36  1  0  0  0  0
 30 77  1  0  0  0  0
 30 78  1  0  0  0  0
 31 79  1  0  0  0  0
 31 80  1  0  0  0  0
 32 81  1  0  0  0  0
 32 82  1  0  0  0  0
 33 83  1  0  0  0  0
 33 84  1  0  0  0  0
 34 85  1  0  0  0  0
 34 86  1  0  0  0  0
 35 87  1  0  0  0  0
 35 88  1  0  0  0  0
 36 89  1  0  0  0  0
 36 90  1  0  0  0  0
M  END
> <PUBCHEM_COMPOUND_CID>
129850444

> <PUBCHEM_COMPOUND_CANONICALIZED>
1

> <PUBCHEM_CACTVS_COMPLEXITY>
640

> <PUBCHEM_CACTVS_HBOND_ACCEPTOR>
12

> <PUBCHEM_CACTVS_HBOND_DONOR>
0

> <PUBCHEM_CACTVS_ROTATABLE_BOND>
0

> <PUBCHEM_CACTVS_SUBSKEYS>
AAADcfB4PAAAAAAAAAAAAAAAAAAAAAAAAAAAAAAAAAAAAAAAAAAAGgAAAAAACACggAIACAAABAAIAACQCAAAAAAAAAAAAAEAAAAAABIAAAACAAAEAAAAAAHISAAAAAAAAAAAAAAAAAAAAAAAAAAAAAAAAA==

> <PUBCHEM_IUPAC_OPENEYE_NAME>
1,6,13,18,25,30-hexaoxacyclohexatriacontane-7,12,19,24,31,36-hexone

> <PUBCHEM_IUPAC_CAS_NAME>
1,6,13,18,25,30-hexaoxacyclohexatriacontane-7,12,19,24,31,36-hexone

> <PUBCHEM_IUPAC_NAME_MARKUP>
1,6,13,18,25,30-hexaoxacyclohexatriacontane-7,12,19,24,31,36-hexone

> <PUBCHEM_IUPAC_NAME>
1,6,13,18,25,30-hexaoxacyclohexatriacontane-7,12,19,24,31,36-hexone

> <PUBCHEM_IUPAC_SYSTEMATIC_NAME>
1,6,13,18,25,30-hexaoxacyclohexatriacontane-7,12,19,24,31,36-hexone

> <PUBCHEM_IUPAC_TRADITIONAL_NAME>
1,6,13,18,25,30-hexaoxacyclohexatriacontane-7,12,19,24,31,36-triquinone

> <PUBCHEM_IUPAC_INCHI>
InChI=1S/C30H48O12/c31-25-13-1-2-14-26(32)38-20-9-10-22-40-28(34)16-5-6-18-30(36)42-24-12-11-23-41-29(35)17-4-3-15-27(33)39-21-8-7-19-37-25/h1-24H2

> <PUBCHEM_IUPAC_INCHIKEY>
SKOQMASJGYLLBF-UHFFFAOYSA-N

> <PUBCHEM_XLOGP3_AA>
3.2

> <PUBCHEM_EXACT_MASS>
600.31457696

> <PUBCHEM_MOLECULAR_FORMULA>
C30H48O12

> <PUBCHEM_MOLECULAR_WEIGHT>
600.7

> <PUBCHEM_SMILES>
C1CCC(=O)OCCCCOC(=O)CCCCC(=O)OCCCCOC(=O)CCCCC(=O)OCCCCOC(=O)C1

> <PUBCHEM_CONNECTIVITY_SMILES>
C1CCC(=O)OCCCCOC(=O)CCCCC(=O)OCCCCOC(=O)CCCCC(=O)OCCCCOC(=O)C1

> <PUBCHEM_CACTVS_TPSA>
158

> <PUBCHEM_MONOISOTOPIC_WEIGHT>
600.31457696

> <PUBCHEM_TOTAL_CHARGE>
0

> <PUBCHEM_HEAVY_ATOM_COUNT>
42

> <PUBCHEM_ATOM_DEF_STEREO_COUNT>
0

> <PUBCHEM_ATOM_UDEF_STEREO_COUNT>
0

> <PUBCHEM_BOND_DEF_STEREO_COUNT>
0

> <PUBCHEM_BOND_UDEF_STEREO_COUNT>
0

> <PUBCHEM_ISOTOPIC_ATOM_COUNT>
0

> <PUBCHEM_COMPONENT_COUNT>
1

> <PUBCHEM_CACTVS_TAUTO_COUNT>
-1

> <PUBCHEM_COORDINATE_TYPE>
1
5
255

$$$$
