129850430
  -OEChem-05122609482D

150150  0     0  0  0  0  0  0999 V2000
   20.8274   -4.9198    0.0000 O   0  0  0  0  0  0  0  0  0  0  0  0
   22.1073   -0.1430    0.0000 O   0  0  0  0  0  0  0  0  0  0  0  0
   15.5059   -9.2290    0.0000 O   0  0  0  0  0  0  0  0  0  0  0  0
   19.6534    6.2497    0.0000 O   0  0  0  0  0  0  0  0  0  0  0  0
   10.5673   -9.4878    0.0000 O   0  0  0  0  0  0  0  0  0  0  0  0
   15.5059    8.9431    0.0000 O   0  0  0  0  0  0  0  0  0  0  0  0
    4.8246   -5.7585    0.0000 O   0  0  0  0  0  0  0  0  0  0  0  0
    8.6678    8.5848    0.0000 O   0  0  0  0  0  0  0  0  0  0  0  0
    3.0523   -1.1416    0.0000 O   0  0  0  0  0  0  0  0  0  0  0  0
    4.8246    5.4726    0.0000 O   0  0  0  0  0  0  0  0  0  0  0  0
   21.0918   -6.3462    0.0000 O   0  0  0  0  0  0  0  0  0  0  0  0
   23.0495    0.9602    0.0000 O   0  0  0  0  0  0  0  0  0  0  0  0
   16.8462   -9.7842    0.0000 O   0  0  0  0  0  0  0  0  0  0  0  0
   21.0918    6.0603    0.0000 O   0  0  0  0  0  0  0  0  0  0  0  0
    9.2924  -10.1801    0.0000 O   0  0  0  0  0  0  0  0  0  0  0  0
   14.7479   10.1801    0.0000 O   0  0  0  0  0  0  0  0  0  0  0  0
    4.7108   -7.2047    0.0000 O   0  0  0  0  0  0  0  0  0  0  0  0
    9.2924    9.8942    0.0000 O   0  0  0  0  0  0  0  0  0  0  0  0
    2.0000   -0.1430    0.0000 O   0  0  0  0  0  0  0  0  0  0  0  0
    3.4139    5.1339    0.0000 O   0  0  0  0  0  0  0  0  0  0  0  0
   18.9463   -7.2427    0.0000 C   0  0  0  0  0  0  0  0  0  0  0  0
   18.1692   -7.8720    0.0000 C   0  0  0  0  0  0  0  0  0  0  0  0
   21.6397    2.8093    0.0000 C   0  0  0  0  0  0  0  0  0  0  0  0
   21.2814    3.7429    0.0000 C   0  0  0  0  0  0  0  0  0  0  0  0
    7.7768   -8.4167    0.0000 C   0  0  0  0  0  0  0  0  0  0  0  0
    6.9382   -7.8720    0.0000 C   0  0  0  0  0  0  0  0  0  0  0  0
   12.5537    9.4107    0.0000 C   0  0  0  0  0  0  0  0  0  0  0  0
   11.5550    9.3584    0.0000 C   0  0  0  0  0  0  0  0  0  0  0  0
    3.2088    1.8434    0.0000 C   0  0  0  0  0  0  0  0  0  0  0  0
    3.4676    2.8093    0.0000 C   0  0  0  0  0  0  0  0  0  0  0  0
   19.6534   -6.5356    0.0000 C   0  0  0  0  0  0  0  0  0  0  0  0
   17.3305   -8.4167    0.0000 C   0  0  0  0  0  0  0  0  0  0  0  0
   21.8986    1.8434    0.0000 C   0  0  0  0  0  0  0  0  0  0  0  0
   20.8274    4.6339    0.0000 C   0  0  0  0  0  0  0  0  0  0  0  0
    8.6678   -8.8707    0.0000 C   0  0  0  0  0  0  0  0  0  0  0  0
    6.1610   -7.2427    0.0000 C   0  0  0  0  0  0  0  0  0  0  0  0
   13.5523    9.3584    0.0000 C   0  0  0  0  0  0  0  0  0  0  0  0
   10.5673    9.2019    0.0000 C   0  0  0  0  0  0  0  0  0  0  0  0
    3.0523    0.8557    0.0000 C   0  0  0  0  0  0  0  0  0  0  0  0
    3.8260    3.7429    0.0000 C   0  0  0  0  0  0  0  0  0  0  0  0
   21.6397   -3.0952    0.0000 C   0  0  0  0  0  0  0  0  0  0  0  0
   21.8986   -2.1293    0.0000 C   0  0  0  0  0  0  0  0  0  0  0  0
   13.5523   -9.6443    0.0000 C   0  0  0  0  0  0  0  0  0  0  0  0
   12.5537   -9.6966    0.0000 C   0  0  0  0  0  0  0  0  0  0  0  0
   18.1692    7.5861    0.0000 C   0  0  0  0  0  0  0  0  0  0  0  0
   17.3305    8.1308    0.0000 C   0  0  0  0  0  0  0  0  0  0  0  0
    3.8260   -4.0288    0.0000 C   0  0  0  0  0  0  0  0  0  0  0  0
    3.4676   -3.0952    0.0000 C   0  0  0  0  0  0  0  0  0  0  0  0
    6.9382    7.5861    0.0000 C   0  0  0  0  0  0  0  0  0  0  0  0
    6.1610    6.9568    0.0000 C   0  0  0  0  0  0  0  0  0  0  0  0
   21.2814   -4.0288    0.0000 C   0  0  0  0  0  0  0  0  0  0  0  0
   22.0550   -1.1416    0.0000 C   0  0  0  0  0  0  0  0  0  0  0  0
   14.5400   -9.4878    0.0000 C   0  0  0  0  0  0  0  0  0  0  0  0
   11.5550   -9.6443    0.0000 C   0  0  0  0  0  0  0  0  0  0  0  0
   18.9463    6.9568    0.0000 C   0  0  0  0  0  0  0  0  0  0  0  0
   16.4395    8.5848    0.0000 C   0  0  0  0  0  0  0  0  0  0  0  0
    4.2800   -4.9198    0.0000 C   0  0  0  0  0  0  0  0  0  0  0  0
    3.2088   -2.1293    0.0000 C   0  0  0  0  0  0  0  0  0  0  0  0
    7.7768    8.1308    0.0000 C   0  0  0  0  0  0  0  0  0  0  0  0
    5.4539    6.2497    0.0000 C   0  0  0  0  0  0  0  0  0  0  0  0
   20.2827   -5.7585    0.0000 C   0  0  0  0  0  0  0  0  0  0  0  0
   22.0550    0.8557    0.0000 C   0  0  0  0  0  0  0  0  0  0  0  0
   16.4395   -8.8707    0.0000 C   0  0  0  0  0  0  0  0  0  0  0  0
   20.2827    5.4726    0.0000 C   0  0  0  0  0  0  0  0  0  0  0  0
    9.6014   -9.2290    0.0000 C   0  0  0  0  0  0  0  0  0  0  0  0
   14.5400    9.2019    0.0000 C   0  0  0  0  0  0  0  0  0  0  0  0
    5.4539   -6.5356    0.0000 C   0  0  0  0  0  0  0  0  0  0  0  0
    9.6014    8.9431    0.0000 C   0  0  0  0  0  0  0  0  0  0  0  0
    3.0000   -0.1430    0.0000 C   0  0  0  0  0  0  0  0  0  0  0  0
    4.2800    4.6339    0.0000 C   0  0  0  0  0  0  0  0  0  0  0  0
   19.0646   -7.8513    0.0000 H   0  0  0  0  0  0  0  0  0  0  0  0
   18.5314   -6.7820    0.0000 H   0  0  0  0  0  0  0  0  0  0  0  0
   18.2232   -8.4897    0.0000 H   0  0  0  0  0  0  0  0  0  0  0  0
   17.8047   -7.3704    0.0000 H   0  0  0  0  0  0  0  0  0  0  0  0
   22.2438    2.6698    0.0000 H   0  0  0  0  0  0  0  0  0  0  0  0
   21.0501    2.6177    0.0000 H   0  0  0  0  0  0  0  0  0  0  0  0
   21.8967    3.6673    0.0000 H   0  0  0  0  0  0  0  0  0  0  0  0
   20.7150    3.4907    0.0000 H   0  0  0  0  0  0  0  0  0  0  0  0
    7.2346   -8.7172    0.0000 H   0  0  0  0  0  0  0  0  0  0  0  0
    8.0868   -7.8797    0.0000 H   0  0  0  0  0  0  0  0  0  0  0  0
    6.3674   -8.1143    0.0000 H   0  0  0  0  0  0  0  0  0  0  0  0
    7.3026   -7.3704    0.0000 H   0  0  0  0  0  0  0  0  0  0  0  0
   12.8730    9.9422    0.0000 H   0  0  0  0  0  0  0  0  0  0  0  0
   12.5537    8.7907    0.0000 H   0  0  0  0  0  0  0  0  0  0  0  0
   11.8171    9.9203    0.0000 H   0  0  0  0  0  0  0  0  0  0  0  0
   11.6198    8.7418    0.0000 H   0  0  0  0  0  0  0  0  0  0  0  0
    2.7553    2.2662    0.0000 H   0  0  0  0  0  0  0  0  0  0  0  0
    3.8152    1.7145    0.0000 H   0  0  0  0  0  0  0  0  0  0  0  0
    3.0608    3.2772    0.0000 H   0  0  0  0  0  0  0  0  0  0  0  0
    4.0572    2.6177    0.0000 H   0  0  0  0  0  0  0  0  0  0  0  0
   19.8347   -7.1285    0.0000 H   0  0  0  0  0  0  0  0  0  0  0  0
   19.1927   -6.1207    0.0000 H   0  0  0  0  0  0  0  0  0  0  0  0
   17.3197   -9.0366    0.0000 H   0  0  0  0  0  0  0  0  0  0  0  0
   17.0205   -7.8797    0.0000 H   0  0  0  0  0  0  0  0  0  0  0  0
   22.4848    1.6415    0.0000 H   0  0  0  0  0  0  0  0  0  0  0  0
   21.2921    1.7145    0.0000 H   0  0  0  0  0  0  0  0  0  0  0  0
   21.4473    4.6230    0.0000 H   0  0  0  0  0  0  0  0  0  0  0  0
   20.2904    4.3239    0.0000 H   0  0  0  0  0  0  0  0  0  0  0  0
    8.1600   -9.2263    0.0000 H   0  0  0  0  0  0  0  0  0  0  0  0
    8.9200   -8.3043    0.0000 H   0  0  0  0  0  0  0  0  0  0  0  0
    5.5681   -7.4240    0.0000 H   0  0  0  0  0  0  0  0  0  0  0  0
    6.5759   -6.7820    0.0000 H   0  0  0  0  0  0  0  0  0  0  0  0
   13.9254    9.8535    0.0000 H   0  0  0  0  0  0  0  0  0  0  0  0
   13.4875    8.7418    0.0000 H   0  0  0  0  0  0  0  0  0  0  0  0
   10.7692    9.7882    0.0000 H   0  0  0  0  0  0  0  0  0  0  0  0
   10.6962    8.5955    0.0000 H   0  0  0  0  0  0  0  0  0  0  0  0
    2.5572    1.2288    0.0000 H   0  0  0  0  0  0  0  0  0  0  0  0
    3.6689    0.7909    0.0000 H   0  0  0  0  0  0  0  0  0  0  0  0
    3.4703    4.2507    0.0000 H   0  0  0  0  0  0  0  0  0  0  0  0
    4.3924    3.4907    0.0000 H   0  0  0  0  0  0  0  0  0  0  0  0
   22.0465   -3.5631    0.0000 H   0  0  0  0  0  0  0  0  0  0  0  0
   21.0501   -2.9036    0.0000 H   0  0  0  0  0  0  0  0  0  0  0  0
   22.3520   -2.5521    0.0000 H   0  0  0  0  0  0  0  0  0  0  0  0
   21.2921   -2.0004    0.0000 H   0  0  0  0  0  0  0  0  0  0  0  0
   13.2903  -10.2062    0.0000 H   0  0  0  0  0  0  0  0  0  0  0  0
   13.4875   -9.0277    0.0000 H   0  0  0  0  0  0  0  0  0  0  0  0
   12.2343  -10.2281    0.0000 H   0  0  0  0  0  0  0  0  0  0  0  0
   12.5537   -9.0766    0.0000 H   0  0  0  0  0  0  0  0  0  0  0  0
   18.7399    7.8284    0.0000 H   0  0  0  0  0  0  0  0  0  0  0  0
   17.8047    7.0845    0.0000 H   0  0  0  0  0  0  0  0  0  0  0  0
   17.8728    8.4313    0.0000 H   0  0  0  0  0  0  0  0  0  0  0  0
   17.0205    7.5938    0.0000 H   0  0  0  0  0  0  0  0  0  0  0  0
    3.2106   -3.9532    0.0000 H   0  0  0  0  0  0  0  0  0  0  0  0
    4.3924   -3.7766    0.0000 H   0  0  0  0  0  0  0  0  0  0  0  0
    2.8635   -2.9557    0.0000 H   0  0  0  0  0  0  0  0  0  0  0  0
    4.0572   -2.9036    0.0000 H   0  0  0  0  0  0  0  0  0  0  0  0
    6.8841    8.2038    0.0000 H   0  0  0  0  0  0  0  0  0  0  0  0
    7.3026    7.0845    0.0000 H   0  0  0  0  0  0  0  0  0  0  0  0
    6.0427    7.5654    0.0000 H   0  0  0  0  0  0  0  0  0  0  0  0
    6.5759    6.4960    0.0000 H   0  0  0  0  0  0  0  0  0  0  0  0
   21.6370   -4.5366    0.0000 H   0  0  0  0  0  0  0  0  0  0  0  0
   20.7150   -3.7766    0.0000 H   0  0  0  0  0  0  0  0  0  0  0  0
   22.5501   -1.5147    0.0000 H   0  0  0  0  0  0  0  0  0  0  0  0
   21.4384   -1.0768    0.0000 H   0  0  0  0  0  0  0  0  0  0  0  0
   14.3381  -10.0741    0.0000 H   0  0  0  0  0  0  0  0  0  0  0  0
   14.4111   -8.8814    0.0000 H   0  0  0  0  0  0  0  0  0  0  0  0
   11.1819  -10.1394    0.0000 H   0  0  0  0  0  0  0  0  0  0  0  0
   11.6198   -9.0277    0.0000 H   0  0  0  0  0  0  0  0  0  0  0  0
   19.5392    7.1381    0.0000 H   0  0  0  0  0  0  0  0  0  0  0  0
   18.5314    6.4960    0.0000 H   0  0  0  0  0  0  0  0  0  0  0  0
   16.9474    8.9404    0.0000 H   0  0  0  0  0  0  0  0  0  0  0  0
   16.1873    8.0184    0.0000 H   0  0  0  0  0  0  0  0  0  0  0  0
    3.6600   -4.9090    0.0000 H   0  0  0  0  0  0  0  0  0  0  0  0
    4.8169   -4.6098    0.0000 H   0  0  0  0  0  0  0  0  0  0  0  0
    2.6226   -1.9274    0.0000 H   0  0  0  0  0  0  0  0  0  0  0  0
    3.8152   -2.0004    0.0000 H   0  0  0  0  0  0  0  0  0  0  0  0
    7.7876    8.7507    0.0000 H   0  0  0  0  0  0  0  0  0  0  0  0
    8.0868    7.5938    0.0000 H   0  0  0  0  0  0  0  0  0  0  0  0
    5.2726    6.8426    0.0000 H   0  0  0  0  0  0  0  0  0  0  0  0
    5.9147    5.8348    0.0000 H   0  0  0  0  0  0  0  0  0  0  0  0
  1 51  1  0  0  0  0
  1 61  1  0  0  0  0
  2 52  1  0  0  0  0
  2 62  1  0  0  0  0
  3 53  1  0  0  0  0
  3 63  1  0  0  0  0
  4 55  1  0  0  0  0
  4 64  1  0  0  0  0
  5 54  1  0  0  0  0
  5 65  1  0  0  0  0
  6 56  1  0  0  0  0
  6 66  1  0  0  0  0
  7 57  1  0  0  0  0
  7 67  1  0  0  0  0
  8 59  1  0  0  0  0
  8 68  1  0  0  0  0
  9 58  1  0  0  0  0
  9 69  1  0  0  0  0
 10 60  1  0  0  0  0
 10 70  1  0  0  0  0
 11 61  2  0  0  0  0
 12 62  2  0  0  0  0
 13 63  2  0  0  0  0
 14 64  2  0  0  0  0
 15 65  2  0  0  0  0
 16 66  2  0  0  0  0
 17 67  2  0  0  0  0
 18 68  2  0  0  0  0
 19 69  2  0  0  0  0
 20 70  2  0  0  0  0
 21 22  1  0  0  0  0
 21 31  1  0  0  0  0
 21 71  1  0  0  0  0
 21 72  1  0  0  0  0
 22 32  1  0  0  0  0
 22 73  1  0  0  0  0
 22 74  1  0  0  0  0
 23 24  1  0  0  0  0
 23 33  1  0  0  0  0
 23 75  1  0  0  0  0
 23 76  1  0  0  0  0
 24 34  1  0  0  0  0
 24 77  1  0  0  0  0
 24 78  1  0  0  0  0
 25 26  1  0  0  0  0
 25 35  1  0  0  0  0
 25 79  1  0  0  0  0
 25 80  1  0  0  0  0
 26 36  1  0  0  0  0
 26 81  1  0  0  0  0
 26 82  1  0  0  0  0
 27 28  1  0  0  0  0
 27 37  1  0  0  0  0
 27 83  1  0  0  0  0
 27 84  1  0  0  0  0
 28 38  1  0  0  0  0
 28 85  1  0  0  0  0
 28 86  1  0  0  0  0
 29 30  1  0  0  0  0
 29 39  1  0  0  0  0
 29 87  1  0  0  0  0
 29 88  1  0  0  0  0
 30 40  1  0  0  0  0
 30 89  1  0  0  0  0
 30 90  1  0  0  0  0
 31 61  1  0  0  0  0
 31 91  1  0  0  0  0
 31 92  1  0  0  0  0
 32 63  1  0  0  0  0
 32 93  1  0  0  0  0
 32 94  1  0  0  0  0
 33 62  1  0  0  0  0
 33 95  1  0  0  0  0
 33 96  1  0  0  0  0
 34 64  1  0  0  0  0
 34 97  1  0  0  0  0
 34 98  1  0  0  0  0
 35 65  1  0  0  0  0
 35 99  1  0  0  0  0
 35100  1  0  0  0  0
 36 67  1  0  0  0  0
 36101  1  0  0  0  0
 36102  1  0  0  0  0
 37 66  1  0  0  0  0
 37103  1  0  0  0  0
 37104  1  0  0  0  0
 38 68  1  0  0  0  0
 38105  1  0  0  0  0
 38106  1  0  0  0  0
 39 69  1  0  0  0  0
 39107  1  0  0  0  0
 39108  1  0  0  0  0
 40 70  1  0  0  0  0
 40109  1  0  0  0  0
 40110  1  0  0  0  0
 41 42  1  0  0  0  0
 41 51  1  0  0  0  0
 41111  1  0  0  0  0
 41112  1  0  0  0  0
 42 52  1  0  0  0  0
 42113  1  0  0  0  0
 42114  1  0  0  0  0
 43 44  1  0  0  0  0
 43 53  1  0  0  0  0
 43115  1  0  0  0  0
 43116  1  0  0  0  0
 44 54  1  0  0  0  0
 44117  1  0  0  0  0
 44118  1  0  0  0  0
 45 46  1  0  0  0  0
 45 55  1  0  0  0  0
 45119  1  0  0  0  0
 45120  1  0  0  0  0
 46 56  1  0  0  0  0
 46121  1  0  0  0  0
 46122  1  0  0  0  0
 47 48  1  0  0  0  0
 47 57  1  0  0  0  0
 47123  1  0  0  0  0
 47124  1  0  0  0  0
 48 58  1  0  0  0  0
 48125  1  0  0  0  0
 48126  1  0  0  0  0
 49 50  1  0  0  0  0
 49 59  1  0  0  0  0
 49127  1  0  0  0  0
 49128  1  0  0  0  0
 50 60  1  0  0  0  0
 50129  1  0  0  0  0
 50130  1  0  0  0  0
 51131  1  0  0  0  0
 51132  1  0  0  0  0
 52133  1  0  0  0  0
 52134  1  0  0  0  0
 53135  1  0  0  0  0
 53136  1  0  0  0  0
 54137  1  0  0  0  0
 54138  1  0  0  0  0
 55139  1  0  0  0  0
 55140  1  0  0  0  0
 56141  1  0  0  0  0
 56142  1  0  0  0  0
 57143  1  0  0  0  0
 57144  1  0  0  0  0
 58145  1  0  0  0  0
 58146  1  0  0  0  0
 59147  1  0  0  0  0
 59148  1  0  0  0  0
 60149  1  0  0  0  0
 60150  1  0  0  0  0
M  END
> <PUBCHEM_COMPOUND_CID>
129850430

> <PUBCHEM_COMPOUND_CANONICALIZED>
1

> <PUBCHEM_CACTVS_COMPLEXITY>
1150

> <PUBCHEM_CACTVS_HBOND_ACCEPTOR>
20

> <PUBCHEM_CACTVS_HBOND_DONOR>
0

> <PUBCHEM_CACTVS_ROTATABLE_BOND>
0

> <PUBCHEM_CACTVS_SUBSKEYS>
AAADcfB8PgAAAAAAAAAAAAAAAAAAAAAAAAAAAAAAAAAAAAAAAAAAGgAAAAAACACggAIACAAABAAIAACQCAAAAAAAAAAAAAEAAAAAABIAAAACAAAEAAAAAAHISAAAAAAAAAAAAAAAAAAAAAAAAAAAAAAAAA==

> <PUBCHEM_IUPAC_OPENEYE_NAME>
1,6,13,18,25,30,37,42,49,54-decaoxacyclohexacontane-7,12,19,24,31,36,43,48,55,60-decone

> <PUBCHEM_IUPAC_CAS_NAME>
1,6,13,18,25,30,37,42,49,54-decaoxacyclohexacontane-7,12,19,24,31,36,43,48,55,60-decone

> <PUBCHEM_IUPAC_NAME_MARKUP>
1,6,13,18,25,30,37,42,49,54-decaoxacyclohexacontane-7,12,19,24,31,36,43,48,55,60-decone

> <PUBCHEM_IUPAC_NAME>
1,6,13,18,25,30,37,42,49,54-decaoxacyclohexacontane-7,12,19,24,31,36,43,48,55,60-decone

> <PUBCHEM_IUPAC_SYSTEMATIC_NAME>
1,6,13,18,25,30,37,42,49,54-decaoxacyclohexacontane-7,12,19,24,31,36,43,48,55,60-decone

> <PUBCHEM_IUPAC_TRADITIONAL_NAME>
1,6,13,18,25,30,37,42,49,54-decaoxacyclohexacontane-7,12,19,24,31,36,43,48,55,60-pentaquinone

> <PUBCHEM_IUPAC_INCHI>
InChI=1S/C50H80O20/c51-41-21-1-2-22-42(52)62-32-13-14-34-64-44(54)24-5-6-26-46(56)66-36-17-18-38-68-48(58)28-9-10-30-50(60)70-40-20-19-39-69-49(59)29-8-7-27-47(57)67-37-16-15-35-65-45(55)25-4-3-23-43(53)63-33-12-11-31-61-41/h1-40H2

> <PUBCHEM_IUPAC_INCHIKEY>
ADCWZVPYKCWAQL-UHFFFAOYSA-N

> <PUBCHEM_XLOGP3_AA>
5.4

> <PUBCHEM_EXACT_MASS>
1000.52429494

> <PUBCHEM_MOLECULAR_FORMULA>
C50H80O20

> <PUBCHEM_MOLECULAR_WEIGHT>
1001.2

> <PUBCHEM_SMILES>
C1CCC(=O)OCCCCOC(=O)CCCCC(=O)OCCCCOC(=O)CCCCC(=O)OCCCCOC(=O)CCCCC(=O)OCCCCOC(=O)CCCCC(=O)OCCCCOC(=O)C1

> <PUBCHEM_CONNECTIVITY_SMILES>
C1CCC(=O)OCCCCOC(=O)CCCCC(=O)OCCCCOC(=O)CCCCC(=O)OCCCCOC(=O)CCCCC(=O)OCCCCOC(=O)CCCCC(=O)OCCCCOC(=O)C1

> <PUBCHEM_CACTVS_TPSA>
263

> <PUBCHEM_MONOISOTOPIC_WEIGHT>
1000.52429494

> <PUBCHEM_TOTAL_CHARGE>
0

> <PUBCHEM_HEAVY_ATOM_COUNT>
70

> <PUBCHEM_ATOM_DEF_STEREO_COUNT>
0

> <PUBCHEM_ATOM_UDEF_STEREO_COUNT>
0

> <PUBCHEM_BOND_DEF_STEREO_COUNT>
0

> <PUBCHEM_BOND_UDEF_STEREO_COUNT>
0

> <PUBCHEM_ISOTOPIC_ATOM_COUNT>
0

> <PUBCHEM_COMPONENT_COUNT>
1

> <PUBCHEM_CACTVS_TAUTO_COUNT>
-1

> <PUBCHEM_COORDINATE_TYPE>
1
5
255

$$$$
