12997
  -OEChem-05122610012D

 28 27  0     0  0  0  0  0  0999 V2000
    5.4641    0.1550    0.0000 C   0  0  0  0  0  0  0  0  0  0  0  0
    4.5981    0.6550    0.0000 C   0  0  0  0  0  0  0  0  0  0  0  0
    6.3301    0.6550    0.0000 C   0  0  0  0  0  0  0  0  0  0  0  0
    3.7321    0.1550    0.0000 C   0  0  0  0  0  0  0  0  0  0  0  0
    7.1962    0.1550    0.0000 C   0  0  0  0  0  0  0  0  0  0  0  0
    2.8660    0.6550    0.0000 C   0  0  0  0  0  0  0  0  0  0  0  0
    8.0622    0.6550    0.0000 C   0  0  0  0  0  0  0  0  0  0  0  0
    2.0000    0.1550    0.0000 C   0  0  0  0  0  0  0  0  0  0  0  0
    8.9282    0.1550    0.0000 C   0  0  0  0  0  0  0  0  0  0  0  0
    9.7942   -0.3450    0.0000 C   0  0  0  0  0  0  0  0  0  0  0  0
    5.0656   -0.3199    0.0000 H   0  0  0  0  0  0  0  0  0  0  0  0
    5.8626   -0.3199    0.0000 H   0  0  0  0  0  0  0  0  0  0  0  0
    4.9966    1.1300    0.0000 H   0  0  0  0  0  0  0  0  0  0  0  0
    4.1996    1.1300    0.0000 H   0  0  0  0  0  0  0  0  0  0  0  0
    6.7287    1.1300    0.0000 H   0  0  0  0  0  0  0  0  0  0  0  0
    5.9316    1.1300    0.0000 H   0  0  0  0  0  0  0  0  0  0  0  0
    3.3335   -0.3199    0.0000 H   0  0  0  0  0  0  0  0  0  0  0  0
    4.1306   -0.3199    0.0000 H   0  0  0  0  0  0  0  0  0  0  0  0
    6.7976   -0.3199    0.0000 H   0  0  0  0  0  0  0  0  0  0  0  0
    7.5947   -0.3199    0.0000 H   0  0  0  0  0  0  0  0  0  0  0  0
    3.2646    1.1300    0.0000 H   0  0  0  0  0  0  0  0  0  0  0  0
    2.4675    1.1300    0.0000 H   0  0  0  0  0  0  0  0  0  0  0  0
    8.4607    1.1300    0.0000 H   0  0  0  0  0  0  0  0  0  0  0  0
    7.6637    1.1300    0.0000 H   0  0  0  0  0  0  0  0  0  0  0  0
    1.6900    0.6919    0.0000 H   0  0  0  0  0  0  0  0  0  0  0  0
    1.4631   -0.1550    0.0000 H   0  0  0  0  0  0  0  0  0  0  0  0
    2.3100   -0.3819    0.0000 H   0  0  0  0  0  0  0  0  0  0  0  0
   10.3312   -0.6550    0.0000 H   0  0  0  0  0  0  0  0  0  0  0  0
  1  2  1  0  0  0  0
  1  3  1  0  0  0  0
  1 11  1  0  0  0  0
  1 12  1  0  0  0  0
  2  4  1  0  0  0  0
  2 13  1  0  0  0  0
  2 14  1  0  0  0  0
  3  5  1  0  0  0  0
  3 15  1  0  0  0  0
  3 16  1  0  0  0  0
  4  6  1  0  0  0  0
  4 17  1  0  0  0  0
  4 18  1  0  0  0  0
  5  7  1  0  0  0  0
  5 19  1  0  0  0  0
  5 20  1  0  0  0  0
  6  8  1  0  0  0  0
  6 21  1  0  0  0  0
  6 22  1  0  0  0  0
  7  9  1  0  0  0  0
  7 23  1  0  0  0  0
  7 24  1  0  0  0  0
  8 25  1  0  0  0  0
  8 26  1  0  0  0  0
  8 27  1  0  0  0  0
  9 10  3  0  0  0  0
 10 28  1  0  0  0  0
M  END
> <PUBCHEM_COMPOUND_CID>
12997

> <PUBCHEM_COMPOUND_CANONICALIZED>
1

> <PUBCHEM_CACTVS_COMPLEXITY>
93.9

> <PUBCHEM_CACTVS_HBOND_ACCEPTOR>
0

> <PUBCHEM_CACTVS_HBOND_DONOR>
0

> <PUBCHEM_CACTVS_ROTATABLE_BOND>
6

> <PUBCHEM_CACTVS_SUBSKEYS>
AAADceBwAAAAAAAAAAAAAAAAAAAAAAAAAAAAAAAAAAAAAAAAAAAAGAAAAAAACACAAAACAAAAAABAGAAAAAgAAAAAAAAAAAAAAAAAAAIAAAAAAAAAAAAAAAEAgIAAAAAAAAAAAAAAAAAAAAAAAAAAAAAAAA==

> <PUBCHEM_IUPAC_OPENEYE_NAME>
dec-1-yne

> <PUBCHEM_IUPAC_CAS_NAME>
1-decyne

> <PUBCHEM_IUPAC_NAME_MARKUP>
dec-1-yne

> <PUBCHEM_IUPAC_NAME>
dec-1-yne

> <PUBCHEM_IUPAC_SYSTEMATIC_NAME>
dec-1-yne

> <PUBCHEM_IUPAC_TRADITIONAL_NAME>
dec-1-yne

> <PUBCHEM_IUPAC_INCHI>
InChI=1S/C10H18/c1-3-5-7-9-10-8-6-4-2/h1H,4-10H2,2H3

> <PUBCHEM_IUPAC_INCHIKEY>
ILLHQJIJCRNRCJ-UHFFFAOYSA-N

> <PUBCHEM_XLOGP3_AA>
4.6

> <PUBCHEM_EXACT_MASS>
138.140850574

> <PUBCHEM_MOLECULAR_FORMULA>
C10H18

> <PUBCHEM_MOLECULAR_WEIGHT>
138.25

> <PUBCHEM_SMILES>
CCCCCCCCC#C

> <PUBCHEM_CONNECTIVITY_SMILES>
CCCCCCCCC#C

> <PUBCHEM_CACTVS_TPSA>
0

> <PUBCHEM_MONOISOTOPIC_WEIGHT>
138.140850574

> <PUBCHEM_TOTAL_CHARGE>
0

> <PUBCHEM_HEAVY_ATOM_COUNT>
10

> <PUBCHEM_ATOM_DEF_STEREO_COUNT>
0

> <PUBCHEM_ATOM_UDEF_STEREO_COUNT>
0

> <PUBCHEM_BOND_DEF_STEREO_COUNT>
0

> <PUBCHEM_BOND_UDEF_STEREO_COUNT>
0

> <PUBCHEM_ISOTOPIC_ATOM_COUNT>
0

> <PUBCHEM_COMPONENT_COUNT>
1

> <PUBCHEM_CACTVS_TAUTO_COUNT>
-1

> <PUBCHEM_COORDINATE_TYPE>
1
5
255

$$$$
