13010
  -OEChem-05122609402D

 15 15  0     0  0  0  0  0  0999 V2000
    3.7601   -1.1739    0.0000 O   0  0  0  0  0  0  0  0  0  0  0  0
    5.5202   -0.8952    0.0000 O   0  0  0  0  0  0  0  0  0  0  0  0
    2.0000   -0.8952    0.0000 O   0  0  0  0  0  0  0  0  0  0  0  0
    4.2601    0.3649    0.0000 C   0  0  0  0  0  0  0  0  0  0  0  0
    3.2601    0.3649    0.0000 C   0  0  0  0  0  0  0  0  0  0  0  0
    4.5691   -0.5861    0.0000 C   0  0  0  0  0  0  0  0  0  0  0  0
    2.9511   -0.5861    0.0000 C   0  0  0  0  0  0  0  0  0  0  0  0
    4.8479    1.1739    0.0000 C   0  0  0  0  0  0  0  0  0  0  0  0
    2.6723    1.1739    0.0000 C   0  0  0  0  0  0  0  0  0  0  0  0
    5.3495    0.8095    0.0000 H   0  0  0  0  0  0  0  0  0  0  0  0
    5.2123    1.6755    0.0000 H   0  0  0  0  0  0  0  0  0  0  0  0
    4.3463    1.5384    0.0000 H   0  0  0  0  0  0  0  0  0  0  0  0
    3.1739    1.5384    0.0000 H   0  0  0  0  0  0  0  0  0  0  0  0
    2.3079    1.6755    0.0000 H   0  0  0  0  0  0  0  0  0  0  0  0
    2.1707    0.8095    0.0000 H   0  0  0  0  0  0  0  0  0  0  0  0
  1  6  1  0  0  0  0
  1  7  1  0  0  0  0
  2  6  2  0  0  0  0
  3  7  2  0  0  0  0
  4  5  2  0  0  0  0
  4  6  1  0  0  0  0
  4  8  1  0  0  0  0
  5  7  1  0  0  0  0
  5  9  1  0  0  0  0
  8 10  1  0  0  0  0
  8 11  1  0  0  0  0
  8 12  1  0  0  0  0
  9 13  1  0  0  0  0
  9 14  1  0  0  0  0
  9 15  1  0  0  0  0
M  END
> <PUBCHEM_COMPOUND_CID>
13010

> <PUBCHEM_COMPOUND_CANONICALIZED>
1

> <PUBCHEM_CACTVS_COMPLEXITY>
190

> <PUBCHEM_CACTVS_HBOND_ACCEPTOR>
3

> <PUBCHEM_CACTVS_HBOND_DONOR>
0

> <PUBCHEM_CACTVS_ROTATABLE_BOND>
0

> <PUBCHEM_CACTVS_SUBSKEYS>
AAADcYBgMAAAAAAAAAAAAAAAAAAAAQAAAAAAAAAAAAAAAAAAAAAAGgAAAAAADACAgAACCAAABACIAgDQCAAAAAAAAAAACAEAAEAABAAAIAACEAAAAAAAIQAAAAAAAAAAAAAAAAAAAAAAAAAAAAAAAAAAAA==

> <PUBCHEM_IUPAC_OPENEYE_NAME>
3,4-dimethylfuran-2,5-dione

> <PUBCHEM_IUPAC_CAS_NAME>
3,4-dimethylfuran-2,5-dione

> <PUBCHEM_IUPAC_NAME_MARKUP>
3,4-dimethylfuran-2,5-dione

> <PUBCHEM_IUPAC_NAME>
3,4-dimethylfuran-2,5-dione

> <PUBCHEM_IUPAC_SYSTEMATIC_NAME>
3,4-dimethylfuran-2,5-dione

> <PUBCHEM_IUPAC_TRADITIONAL_NAME>
3,4-dimethylfuran-2,5-quinone

> <PUBCHEM_IUPAC_INCHI>
InChI=1S/C6H6O3/c1-3-4(2)6(8)9-5(3)7/h1-2H3

> <PUBCHEM_IUPAC_INCHIKEY>
MFGALGYVFGDXIX-UHFFFAOYSA-N

> <PUBCHEM_XLOGP3_AA>
0.6

> <PUBCHEM_EXACT_MASS>
126.031694049

> <PUBCHEM_MOLECULAR_FORMULA>
C6H6O3

> <PUBCHEM_MOLECULAR_WEIGHT>
126.11

> <PUBCHEM_SMILES>
CC1=C(C(=O)OC1=O)C

> <PUBCHEM_CONNECTIVITY_SMILES>
CC1=C(C(=O)OC1=O)C

> <PUBCHEM_CACTVS_TPSA>
43.4

> <PUBCHEM_MONOISOTOPIC_WEIGHT>
126.031694049

> <PUBCHEM_TOTAL_CHARGE>
0

> <PUBCHEM_HEAVY_ATOM_COUNT>
9

> <PUBCHEM_ATOM_DEF_STEREO_COUNT>
0

> <PUBCHEM_ATOM_UDEF_STEREO_COUNT>
0

> <PUBCHEM_BOND_DEF_STEREO_COUNT>
0

> <PUBCHEM_BOND_UDEF_STEREO_COUNT>
0

> <PUBCHEM_ISOTOPIC_ATOM_COUNT>
0

> <PUBCHEM_COMPONENT_COUNT>
1

> <PUBCHEM_CACTVS_TAUTO_COUNT>
-1

> <PUBCHEM_COORDINATE_TYPE>
1
5
255

$$$$
