13031409
  -OEChem-05122609512D

 19 19  0     1  0  0  0  0  0999 V2000
    5.6577   -1.3349    0.0000 F   0  0  0  0  0  0  0  0  0  0  0  0
    4.9793   -1.8759    0.0000 F   0  0  0  0  0  0  0  0  0  0  0  0
    6.0916   -0.4339    0.0000 F   0  0  0  0  0  0  0  0  0  0  0  0
    6.0916    0.4339    0.0000 F   0  0  0  0  0  0  0  0  0  0  0  0
    3.5593   -2.0984    0.0000 F   0  0  0  0  0  0  0  0  0  0  0  0
    4.9793    1.8759    0.0000 F   0  0  0  0  0  0  0  0  0  0  0  0
    5.6577    1.3349    0.0000 F   0  0  0  0  0  0  0  0  0  0  0  0
    2.0000   -0.5000    0.0000 F   0  0  0  0  0  0  0  0  0  0  0  0
    2.3765   -1.2818    0.0000 F   0  0  0  0  0  0  0  0  0  0  0  0
    3.5593    2.0984    0.0000 F   0  0  0  0  0  0  0  0  0  0  0  0
    2.0990    0.9339    0.0000 F   0  0  0  0  0  0  0  0  0  0  0  0
    4.7568   -0.9010    0.0000 C   0  0  0  0  0  0  0  0  0  0  0  0
    5.1906   -0.0000    0.0000 C   0  0  0  0  0  0  0  0  0  0  0  0
    3.7818   -1.1235    0.0000 C   0  0  3  0  0  0  0  0  0  0  0  0
    4.7568    0.9010    0.0000 C   0  0  0  0  0  0  0  0  0  0  0  0
    3.0000   -0.5000    0.0000 C   0  0  0  0  0  0  0  0  0  0  0  0
    3.7818    1.1235    0.0000 C   0  0  0  0  0  0  0  0  0  0  0  0
    3.0000    0.5000    0.0000 C   0  0  0  0  0  0  0  0  0  0  0  0
    4.2202   -1.5619    0.0000 H   0  0  0  0  0  0  0  0  0  0  0  0
  1 12  1  0  0  0  0
  2 12  1  0  0  0  0
  3 13  1  0  0  0  0
  4 13  1  0  0  0  0
  5 14  1  0  0  0  0
  6 15  1  0  0  0  0
  7 15  1  0  0  0  0
  8 16  1  0  0  0  0
  9 16  1  0  0  0  0
 10 17  1  0  0  0  0
 11 18  1  0  0  0  0
 12 13  1  0  0  0  0
 12 14  1  0  0  0  0
 13 15  1  0  0  0  0
 14 16  1  0  0  0  0
 14 19  1  0  0  0  0
 15 17  1  0  0  0  0
 16 18  1  0  0  0  0
 17 18  2  0  0  0  0
M  END
> <PUBCHEM_COMPOUND_CID>
13031409

> <PUBCHEM_COMPOUND_CANONICALIZED>
1

> <PUBCHEM_CACTVS_COMPLEXITY>
392

> <PUBCHEM_CACTVS_HBOND_ACCEPTOR>
11

> <PUBCHEM_CACTVS_HBOND_DONOR>
0

> <PUBCHEM_CACTVS_ROTATABLE_BOND>
0

> <PUBCHEM_CACTVS_SUBSKEYS>
AAADcQBgAcAAAAAAAAAAAAAAAAAAAAAAAAAAAAAABAAAAAAAAAAAGQAAAAAACACAABAAAAAAAACAAABAAAAAAAAgAAAACAAAAAgAAAIAAAAAAAAAgAAIAAMAgAAAAAAAAAAAAAAAAAAAAAAAAAAAAAAAAA==

> <PUBCHEM_IUPAC_OPENEYE_NAME>
1,2,3,3,4,4,5,5,6,7,7-undecafluorocycloheptene

> <PUBCHEM_IUPAC_CAS_NAME>
1,2,3,3,4,4,5,5,6,7,7-undecafluorocycloheptene

> <PUBCHEM_IUPAC_NAME_MARKUP>
1,2,3,3,4,4,5,5,6,7,7-undecafluorocycloheptene

> <PUBCHEM_IUPAC_NAME>
1,2,3,3,4,4,5,5,6,7,7-undecafluorocycloheptene

> <PUBCHEM_IUPAC_SYSTEMATIC_NAME>
1,2,3,3,4,4,5,5,6,7,7-undecakis(fluoranyl)cycloheptene

> <PUBCHEM_IUPAC_TRADITIONAL_NAME>
1,2,3,3,4,4,5,5,6,7,7-undecafluorocycloheptene

> <PUBCHEM_IUPAC_INCHI>
InChI=1S/C7HF11/c8-1-2(9)5(13,14)7(17,18)6(15,16)3(10)4(1,11)12/h3H

> <PUBCHEM_IUPAC_INCHIKEY>
FLGFGHZKFDFUMY-UHFFFAOYSA-N

> <PUBCHEM_XLOGP3_AA>
3.1

> <PUBCHEM_EXACT_MASS>
293.99025981

> <PUBCHEM_MOLECULAR_FORMULA>
C7HF11

> <PUBCHEM_MOLECULAR_WEIGHT>
294.06

> <PUBCHEM_SMILES>
C1(C(C(=C(C(C(C1(F)F)(F)F)(F)F)F)F)(F)F)F

> <PUBCHEM_CONNECTIVITY_SMILES>
C1(C(C(=C(C(C(C1(F)F)(F)F)(F)F)F)F)(F)F)F

> <PUBCHEM_CACTVS_TPSA>
0

> <PUBCHEM_MONOISOTOPIC_WEIGHT>
293.99025981

> <PUBCHEM_TOTAL_CHARGE>
0

> <PUBCHEM_HEAVY_ATOM_COUNT>
18

> <PUBCHEM_ATOM_DEF_STEREO_COUNT>
0

> <PUBCHEM_ATOM_UDEF_STEREO_COUNT>
1

> <PUBCHEM_BOND_DEF_STEREO_COUNT>
0

> <PUBCHEM_BOND_UDEF_STEREO_COUNT>
0

> <PUBCHEM_ISOTOPIC_ATOM_COUNT>
0

> <PUBCHEM_COMPONENT_COUNT>
1

> <PUBCHEM_CACTVS_TAUTO_COUNT>
-1

> <PUBCHEM_COORDINATE_TYPE>
1
5
255

> <PUBCHEM_BONDANNOTATIONS>
14  5  3

$$$$
