130323426
  -OEChem-05122608322D

 98101  0     0  0  0  0  0  0999 V2000
    8.5991    1.2500    0.0000 O   0  0  0  0  0  0  0  0  0  0  0  0
    7.7331   -1.2500    0.0000 O   0  0  0  0  0  0  0  0  0  0  0  0
   10.3312    6.2500    0.0000 O   0  0  0  0  0  0  0  0  0  0  0  0
    6.0010   -6.2500    0.0000 O   0  0  0  0  0  0  0  0  0  0  0  0
   11.1972    8.7500    0.0000 O   0  0  0  0  0  0  0  0  0  0  0  0
    5.1350   -8.7500    0.0000 O   0  0  0  0  0  0  0  0  0  0  0  0
   12.9292   13.7500    0.0000 O   0  0  0  0  0  0  0  0  0  0  0  0
    3.4030  -13.7500    0.0000 O   0  0  0  0  0  0  0  0  0  0  0  0
   10.3312    1.2500    0.0000 O   0  0  0  0  0  0  0  0  0  0  0  0
    6.0010   -1.2500    0.0000 O   0  0  0  0  0  0  0  0  0  0  0  0
    8.5991    6.2500    0.0000 O   0  0  0  0  0  0  0  0  0  0  0  0
    7.7331   -6.2500    0.0000 O   0  0  0  0  0  0  0  0  0  0  0  0
   12.9292    8.7500    0.0000 O   0  0  0  0  0  0  0  0  0  0  0  0
    3.4030   -8.7500    0.0000 O   0  0  0  0  0  0  0  0  0  0  0  0
   11.1972   13.7500    0.0000 O   0  0  0  0  0  0  0  0  0  0  0  0
    5.1350  -13.7500    0.0000 O   0  0  0  0  0  0  0  0  0  0  0  0
   13.7953   16.2500    0.0000 O   0  0  0  0  0  0  0  0  0  0  0  0
    2.5369  -16.2500    0.0000 O   0  0  0  0  0  0  0  0  0  0  0  0
    9.4651    2.7500    0.0000 C   0  0  0  0  0  0  0  0  0  0  0  0
    6.8671   -2.7500    0.0000 C   0  0  0  0  0  0  0  0  0  0  0  0
    9.4651    4.7500    0.0000 C   0  0  0  0  0  0  0  0  0  0  0  0
    6.8671   -4.7500    0.0000 C   0  0  0  0  0  0  0  0  0  0  0  0
    8.5991    0.2500    0.0000 C   0  0  0  0  0  0  0  0  0  0  0  0
    7.7331   -0.2500    0.0000 C   0  0  0  0  0  0  0  0  0  0  0  0
    8.5991    3.2500    0.0000 C   0  0  0  0  0  0  0  0  0  0  0  0
    7.7331   -3.2500    0.0000 C   0  0  0  0  0  0  0  0  0  0  0  0
   10.3312    3.2500    0.0000 C   0  0  0  0  0  0  0  0  0  0  0  0
    6.0010   -3.2500    0.0000 C   0  0  0  0  0  0  0  0  0  0  0  0
    8.5991    4.2500    0.0000 C   0  0  0  0  0  0  0  0  0  0  0  0
    7.7331   -4.2500    0.0000 C   0  0  0  0  0  0  0  0  0  0  0  0
   10.3312    4.2500    0.0000 C   0  0  0  0  0  0  0  0  0  0  0  0
    6.0010   -4.2500    0.0000 C   0  0  0  0  0  0  0  0  0  0  0  0
   12.0632   10.2500    0.0000 C   0  0  0  0  0  0  0  0  0  0  0  0
    4.2690  -10.2500    0.0000 C   0  0  0  0  0  0  0  0  0  0  0  0
   10.3312    7.2500    0.0000 C   0  0  0  0  0  0  0  0  0  0  0  0
    6.0010   -7.2500    0.0000 C   0  0  0  0  0  0  0  0  0  0  0  0
   11.1972    7.7500    0.0000 C   0  0  0  0  0  0  0  0  0  0  0  0
    5.1350   -7.7500    0.0000 C   0  0  0  0  0  0  0  0  0  0  0  0
   12.0632   12.2500    0.0000 C   0  0  0  0  0  0  0  0  0  0  0  0
    4.2690  -12.2500    0.0000 C   0  0  0  0  0  0  0  0  0  0  0  0
    9.4651    1.7500    0.0000 C   0  0  0  0  0  0  0  0  0  0  0  0
    6.8671   -1.7500    0.0000 C   0  0  0  0  0  0  0  0  0  0  0  0
    9.4651    5.7500    0.0000 C   0  0  0  0  0  0  0  0  0  0  0  0
    6.8671   -5.7500    0.0000 C   0  0  0  0  0  0  0  0  0  0  0  0
   11.1972   10.7500    0.0000 C   0  0  0  0  0  0  0  0  0  0  0  0
    5.1350  -10.7500    0.0000 C   0  0  0  0  0  0  0  0  0  0  0  0
   12.9292   10.7500    0.0000 C   0  0  0  0  0  0  0  0  0  0  0  0
    3.4030  -10.7500    0.0000 C   0  0  0  0  0  0  0  0  0  0  0  0
   11.1972   11.7500    0.0000 C   0  0  0  0  0  0  0  0  0  0  0  0
    5.1350  -11.7500    0.0000 C   0  0  0  0  0  0  0  0  0  0  0  0
   12.9292   11.7500    0.0000 C   0  0  0  0  0  0  0  0  0  0  0  0
    3.4030  -11.7500    0.0000 C   0  0  0  0  0  0  0  0  0  0  0  0
   12.0632    9.2500    0.0000 C   0  0  0  0  0  0  0  0  0  0  0  0
    4.2690   -9.2500    0.0000 C   0  0  0  0  0  0  0  0  0  0  0  0
   12.0632   13.2500    0.0000 C   0  0  0  0  0  0  0  0  0  0  0  0
    4.2690  -13.2500    0.0000 C   0  0  0  0  0  0  0  0  0  0  0  0
   12.9292   14.7500    0.0000 C   0  0  0  0  0  0  0  0  0  0  0  0
    3.4030  -14.7500    0.0000 C   0  0  0  0  0  0  0  0  0  0  0  0
   13.7953   15.2500    0.0000 C   0  0  0  0  0  0  0  0  0  0  0  0
    2.5369  -15.2500    0.0000 C   0  0  0  0  0  0  0  0  0  0  0  0
    8.8112   -0.3326    0.0000 H   0  0  0  0  0  0  0  0  0  0  0  0
    9.2097    0.3577    0.0000 H   0  0  0  0  0  0  0  0  0  0  0  0
    7.5210    0.3326    0.0000 H   0  0  0  0  0  0  0  0  0  0  0  0
    7.1225   -0.3577    0.0000 H   0  0  0  0  0  0  0  0  0  0  0  0
    8.0622    2.9400    0.0000 H   0  0  0  0  0  0  0  0  0  0  0  0
    8.2700   -2.9400    0.0000 H   0  0  0  0  0  0  0  0  0  0  0  0
   10.8681    2.9400    0.0000 H   0  0  0  0  0  0  0  0  0  0  0  0
    5.4641   -2.9400    0.0000 H   0  0  0  0  0  0  0  0  0  0  0  0
    8.0622    4.5600    0.0000 H   0  0  0  0  0  0  0  0  0  0  0  0
    8.2700   -4.5600    0.0000 H   0  0  0  0  0  0  0  0  0  0  0  0
   10.8681    4.5600    0.0000 H   0  0  0  0  0  0  0  0  0  0  0  0
    5.4641   -4.5600    0.0000 H   0  0  0  0  0  0  0  0  0  0  0  0
   10.1191    7.8326    0.0000 H   0  0  0  0  0  0  0  0  0  0  0  0
    9.7206    7.1423    0.0000 H   0  0  0  0  0  0  0  0  0  0  0  0
    6.2131   -7.8326    0.0000 H   0  0  0  0  0  0  0  0  0  0  0  0
    6.6116   -7.1423    0.0000 H   0  0  0  0  0  0  0  0  0  0  0  0
   11.4092    7.1674    0.0000 H   0  0  0  0  0  0  0  0  0  0  0  0
   11.8078    7.8577    0.0000 H   0  0  0  0  0  0  0  0  0  0  0  0
    4.9230   -7.1674    0.0000 H   0  0  0  0  0  0  0  0  0  0  0  0
    4.5244   -7.8577    0.0000 H   0  0  0  0  0  0  0  0  0  0  0  0
   10.6603   10.4400    0.0000 H   0  0  0  0  0  0  0  0  0  0  0  0
    5.6720  -10.4400    0.0000 H   0  0  0  0  0  0  0  0  0  0  0  0
   13.4662   10.4400    0.0000 H   0  0  0  0  0  0  0  0  0  0  0  0
    2.8660  -10.4400    0.0000 H   0  0  0  0  0  0  0  0  0  0  0  0
   10.6603   12.0600    0.0000 H   0  0  0  0  0  0  0  0  0  0  0  0
    5.6720  -12.0600    0.0000 H   0  0  0  0  0  0  0  0  0  0  0  0
   13.4662   12.0600    0.0000 H   0  0  0  0  0  0  0  0  0  0  0  0
    2.8660  -12.0600    0.0000 H   0  0  0  0  0  0  0  0  0  0  0  0
   12.7172   15.3326    0.0000 H   0  0  0  0  0  0  0  0  0  0  0  0
   12.3187   14.6423    0.0000 H   0  0  0  0  0  0  0  0  0  0  0  0
    3.6150  -15.3326    0.0000 H   0  0  0  0  0  0  0  0  0  0  0  0
    4.0135  -14.6423    0.0000 H   0  0  0  0  0  0  0  0  0  0  0  0
   14.0073   14.6674    0.0000 H   0  0  0  0  0  0  0  0  0  0  0  0
   14.4058   15.3577    0.0000 H   0  0  0  0  0  0  0  0  0  0  0  0
    2.3249  -14.6674    0.0000 H   0  0  0  0  0  0  0  0  0  0  0  0
    1.9264  -15.3577    0.0000 H   0  0  0  0  0  0  0  0  0  0  0  0
   14.3322   16.5600    0.0000 H   0  0  0  0  0  0  0  0  0  0  0  0
    2.0000  -16.5600    0.0000 H   0  0  0  0  0  0  0  0  0  0  0  0
  1 23  1  0  0  0  0
  1 41  1  0  0  0  0
  2 24  1  0  0  0  0
  2 42  1  0  0  0  0
  3 35  1  0  0  0  0
  3 43  1  0  0  0  0
  4 36  1  0  0  0  0
  4 44  1  0  0  0  0
  5 37  1  0  0  0  0
  5 53  1  0  0  0  0
  6 38  1  0  0  0  0
  6 54  1  0  0  0  0
  7 55  1  0  0  0  0
  7 57  1  0  0  0  0
  8 56  1  0  0  0  0
  8 58  1  0  0  0  0
  9 41  2  0  0  0  0
 10 42  2  0  0  0  0
 11 43  2  0  0  0  0
 12 44  2  0  0  0  0
 13 53  2  0  0  0  0
 14 54  2  0  0  0  0
 15 55  2  0  0  0  0
 16 56  2  0  0  0  0
 17 59  1  0  0  0  0
 17 97  1  0  0  0  0
 18 60  1  0  0  0  0
 18 98  1  0  0  0  0
 19 25  2  0  0  0  0
 19 27  1  0  0  0  0
 19 41  1  0  0  0  0
 20 26  2  0  0  0  0
 20 28  1  0  0  0  0
 20 42  1  0  0  0  0
 21 29  2  0  0  0  0
 21 31  1  0  0  0  0
 21 43  1  0  0  0  0
 22 30  2  0  0  0  0
 22 32  1  0  0  0  0
 22 44  1  0  0  0  0
 23 24  1  0  0  0  0
 23 61  1  0  0  0  0
 23 62  1  0  0  0  0
 24 63  1  0  0  0  0
 24 64  1  0  0  0  0
 25 29  1  0  0  0  0
 25 65  1  0  0  0  0
 26 30  1  0  0  0  0
 26 66  1  0  0  0  0
 27 31  2  0  0  0  0
 27 67  1  0  0  0  0
 28 32  2  0  0  0  0
 28 68  1  0  0  0  0
 29 69  1  0  0  0  0
 30 70  1  0  0  0  0
 31 71  1  0  0  0  0
 32 72  1  0  0  0  0
 33 45  2  0  0  0  0
 33 47  1  0  0  0  0
 33 53  1  0  0  0  0
 34 46  2  0  0  0  0
 34 48  1  0  0  0  0
 34 54  1  0  0  0  0
 35 37  1  0  0  0  0
 35 73  1  0  0  0  0
 35 74  1  0  0  0  0
 36 38  1  0  0  0  0
 36 75  1  0  0  0  0
 36 76  1  0  0  0  0
 37 77  1  0  0  0  0
 37 78  1  0  0  0  0
 38 79  1  0  0  0  0
 38 80  1  0  0  0  0
 39 49  2  0  0  0  0
 39 51  1  0  0  0  0
 39 55  1  0  0  0  0
 40 50  2  0  0  0  0
 40 52  1  0  0  0  0
 40 56  1  0  0  0  0
 45 49  1  0  0  0  0
 45 81  1  0  0  0  0
 46 50  1  0  0  0  0
 46 82  1  0  0  0  0
 47 51  2  0  0  0  0
 47 83  1  0  0  0  0
 48 52  2  0  0  0  0
 48 84  1  0  0  0  0
 49 85  1  0  0  0  0
 50 86  1  0  0  0  0
 51 87  1  0  0  0  0
 52 88  1  0  0  0  0
 57 59  1  0  0  0  0
 57 89  1  0  0  0  0
 57 90  1  0  0  0  0
 58 60  1  0  0  0  0
 58 91  1  0  0  0  0
 58 92  1  0  0  0  0
 59 93  1  0  0  0  0
 59 94  1  0  0  0  0
 60 95  1  0  0  0  0
 60 96  1  0  0  0  0
M  END
> <PUBCHEM_COMPOUND_CID>
130323426

> <PUBCHEM_COMPOUND_CANONICALIZED>
1

> <PUBCHEM_CACTVS_COMPLEXITY>
1310

> <PUBCHEM_CACTVS_HBOND_ACCEPTOR>
18

> <PUBCHEM_CACTVS_HBOND_DONOR>
2

> <PUBCHEM_CACTVS_ROTATABLE_BOND>
29

> <PUBCHEM_CACTVS_SUBSKEYS>
AAADcfB8PgAAAAAAAAAAAAAAAAAAAAAAAAAwYMGAAAAAAAABVAAAGgAACAAADACgmAIwCIAABgCIAiDSCAACAAAkAAAIiAEACMgJNjKANRiCMQAkwAELqYeIyDCOQAAAAAAAAACAAAAAAAAAAAAAAAAAAA==

> <PUBCHEM_IUPAC_OPENEYE_NAME>
O4-[2-[4-[2-[4-[2-[4-(2-hydroxyethoxycarbonyl)benzoyl]oxyethoxycarbonyl]benzoyl]oxyethoxycarbonyl]benzoyl]oxyethyl] O1-(2-hydroxyethyl) benzene-1,4-dicarboxylate

> <PUBCHEM_IUPAC_CAS_NAME>
benzene-1,4-dicarboxylic acid O4-[2-[[4-[2-[[4-[2-[[4-[2-hydroxyethoxy(oxo)methyl]phenyl]-oxomethoxy]ethoxy-oxomethyl]phenyl]-oxomethoxy]ethoxy-oxomethyl]phenyl]-oxomethoxy]ethyl] ester O1-(2-hydroxyethyl) ester

> <PUBCHEM_IUPAC_NAME_MARKUP>
4-<I>O</I>-[2-[4-[2-[4-[2-[4-(2-hydroxyethoxycarbonyl)benzoyl]oxyethoxycarbonyl]benzoyl]oxyethoxycarbonyl]benzoyl]oxyethyl] 1-<I>O</I>-(2-hydroxyethyl) benzene-1,4-dicarboxylate

> <PUBCHEM_IUPAC_NAME>
4-O-[2-[4-[2-[4-[2-[4-(2-hydroxyethoxycarbonyl)benzoyl]oxyethoxycarbonyl]benzoyl]oxyethoxycarbonyl]benzoyl]oxyethyl] 1-O-(2-hydroxyethyl) benzene-1,4-dicarboxylate

> <PUBCHEM_IUPAC_SYSTEMATIC_NAME>
O1-(2-hydroxyethyl) O4-[2-[4-[2-[4-[2-[4-(2-hydroxyethyloxycarbonyl)phenyl]carbonyloxyethoxycarbonyl]phenyl]carbonyloxyethoxycarbonyl]phenyl]carbonyloxyethyl] benzene-1,4-dicarboxylate

> <PUBCHEM_IUPAC_TRADITIONAL_NAME>
benzene-1,4-dicarboxylic acid O4-[2-[4-[2-[4-[2-[4-(2-hydroxyethoxycarbonyl)benzoyl]oxyethoxycarbonyl]benzoyl]oxyethoxycarbonyl]benzoyl]oxyethyl] ester O1-(2-hydroxyethyl) ester

> <PUBCHEM_IUPAC_INCHI>
InChI=1S/C42H38O18/c43-17-19-53-35(45)27-1-5-29(6-2-27)37(47)55-21-23-57-39(49)31-9-13-33(14-10-31)41(51)59-25-26-60-42(52)34-15-11-32(12-16-34)40(50)58-24-22-56-38(48)30-7-3-28(4-8-30)36(46)54-20-18-44/h1-16,43-44H,17-26H2

> <PUBCHEM_IUPAC_INCHIKEY>
AXPYQJRPLUZWOH-UHFFFAOYSA-N

> <PUBCHEM_XLOGP3_AA>
4.5

> <PUBCHEM_EXACT_MASS>
830.20581436

> <PUBCHEM_MOLECULAR_FORMULA>
C42H38O18

> <PUBCHEM_MOLECULAR_WEIGHT>
830.7

> <PUBCHEM_SMILES>
C1=CC(=CC=C1C(=O)OCCO)C(=O)OCCOC(=O)C2=CC=C(C=C2)C(=O)OCCOC(=O)C3=CC=C(C=C3)C(=O)OCCOC(=O)C4=CC=C(C=C4)C(=O)OCCO

> <PUBCHEM_CONNECTIVITY_SMILES>
C1=CC(=CC=C1C(=O)OCCO)C(=O)OCCOC(=O)C2=CC=C(C=C2)C(=O)OCCOC(=O)C3=CC=C(C=C3)C(=O)OCCOC(=O)C4=CC=C(C=C4)C(=O)OCCO

> <PUBCHEM_CACTVS_TPSA>
251

> <PUBCHEM_MONOISOTOPIC_WEIGHT>
830.20581436

> <PUBCHEM_TOTAL_CHARGE>
0

> <PUBCHEM_HEAVY_ATOM_COUNT>
60

> <PUBCHEM_ATOM_DEF_STEREO_COUNT>
0

> <PUBCHEM_ATOM_UDEF_STEREO_COUNT>
0

> <PUBCHEM_BOND_DEF_STEREO_COUNT>
0

> <PUBCHEM_BOND_UDEF_STEREO_COUNT>
0

> <PUBCHEM_ISOTOPIC_ATOM_COUNT>
0

> <PUBCHEM_COMPONENT_COUNT>
1

> <PUBCHEM_CACTVS_TAUTO_COUNT>
-1

> <PUBCHEM_COORDINATE_TYPE>
1
5
255

> <PUBCHEM_BONDANNOTATIONS>
19  25  8
19  27  8
20  26  8
20  28  8
21  29  8
21  31  8
22  30  8
22  32  8
25  29  8
26  30  8
27  31  8
28  32  8
33  45  8
33  47  8
34  46  8
34  48  8
39  49  8
39  51  8
40  50  8
40  52  8
45  49  8
46  50  8
47  51  8
48  52  8

$$$$
