13081654
  -OEChem-05122609442D

 30 29  0     1  0  0  0  0  0999 V2000
    6.8301   -0.6830    0.0000 F   0  0  0  0  0  0  0  0  0  0  0  0
    5.8301    1.0490    0.0000 F   0  0  0  0  0  0  0  0  0  0  0  0
    4.9641    0.5490    0.0000 F   0  0  0  0  0  0  0  0  0  0  0  0
    5.9641   -1.1830    0.0000 F   0  0  0  0  0  0  0  0  0  0  0  0
    7.6962   -0.1830    0.0000 F   0  0  0  0  0  0  0  0  0  0  0  0
    6.6962    1.5490    0.0000 F   0  0  0  0  0  0  0  0  0  0  0  0
    4.0981    0.0490    0.0000 F   0  0  0  0  0  0  0  0  0  0  0  0
    5.0981   -1.6830    0.0000 F   0  0  0  0  0  0  0  0  0  0  0  0
    8.5622    0.3170    0.0000 F   0  0  0  0  0  0  0  0  0  0  0  0
    7.5622    2.0490    0.0000 F   0  0  0  0  0  0  0  0  0  0  0  0
    3.2321   -0.4510    0.0000 F   0  0  0  0  0  0  0  0  0  0  0  0
    4.2321   -2.1830    0.0000 F   0  0  0  0  0  0  0  0  0  0  0  0
    2.0000   -2.3170    0.0000 F   0  0  0  0  0  0  0  0  0  0  0  0
    2.3660   -0.9510    0.0000 F   0  0  0  0  0  0  0  0  0  0  0  0
    3.3660   -2.6830    0.0000 F   0  0  0  0  0  0  0  0  0  0  0  0
    9.7942    1.1830    0.0000 O   0  0  0  0  0  0  0  0  0  0  0  0
    6.3301    0.1830    0.0000 C   0  0  0  0  0  0  0  0  0  0  0  0
    5.4641   -0.3170    0.0000 C   0  0  0  0  0  0  0  0  0  0  0  0
    7.1962    0.6830    0.0000 C   0  0  0  0  0  0  0  0  0  0  0  0
    4.5981   -0.8170    0.0000 C   0  0  0  0  0  0  0  0  0  0  0  0
    8.0622    1.1830    0.0000 C   0  0  0  0  0  0  0  0  0  0  0  0
    3.7321   -1.3170    0.0000 C   0  0  0  0  0  0  0  0  0  0  0  0
    8.9282    1.6830    0.0000 C   0  0  3  0  0  0  0  0  0  0  0  0
    2.8660   -1.8170    0.0000 C   0  0  0  0  0  0  0  0  0  0  0  0
    8.9282    2.6830    0.0000 C   0  0  0  0  0  0  0  0  0  0  0  0
    9.4651    1.9930    0.0000 H   0  0  0  0  0  0  0  0  0  0  0  0
    9.5482    2.6830    0.0000 H   0  0  0  0  0  0  0  0  0  0  0  0
    8.9282    3.3030    0.0000 H   0  0  0  0  0  0  0  0  0  0  0  0
    8.3082    2.6830    0.0000 H   0  0  0  0  0  0  0  0  0  0  0  0
   10.3312    1.4930    0.0000 H   0  0  0  0  0  0  0  0  0  0  0  0
  1 17  1  0  0  0  0
  2 17  1  0  0  0  0
  3 18  1  0  0  0  0
  4 18  1  0  0  0  0
  5 19  1  0  0  0  0
  6 19  1  0  0  0  0
  7 20  1  0  0  0  0
  8 20  1  0  0  0  0
  9 21  1  0  0  0  0
 10 21  1  0  0  0  0
 11 22  1  0  0  0  0
 12 22  1  0  0  0  0
 13 24  1  0  0  0  0
 14 24  1  0  0  0  0
 15 24  1  0  0  0  0
 16 23  1  0  0  0  0
 16 30  1  0  0  0  0
 17 18  1  0  0  0  0
 17 19  1  0  0  0  0
 18 20  1  0  0  0  0
 19 21  1  0  0  0  0
 20 22  1  0  0  0  0
 21 23  1  0  0  0  0
 22 24  1  0  0  0  0
 23 25  1  0  0  0  0
 23 26  1  0  0  0  0
 25 27  1  0  0  0  0
 25 28  1  0  0  0  0
 25 29  1  0  0  0  0
M  END
> <PUBCHEM_COMPOUND_CID>
13081654

> <PUBCHEM_COMPOUND_CANONICALIZED>
1

> <PUBCHEM_CACTVS_COMPLEXITY>
490

> <PUBCHEM_CACTVS_HBOND_ACCEPTOR>
16

> <PUBCHEM_CACTVS_HBOND_DONOR>
1

> <PUBCHEM_CACTVS_ROTATABLE_BOND>
6

> <PUBCHEM_CACTVS_SUBSKEYS>
AAADcYBwIcAAAAAAAAAAAAAAAAAAAAAAAAAAAAAAAAAAAAAAAAAAGwAACAAACBSggBICAAAAAgAAAAAAAAAAAAAAAAAAAAAAAAAAEAIAAAAAQAAEAAAAAAGAwKAAAAAAAAAAAAAAAAAAAAAAAAAAAAAAAA==

> <PUBCHEM_IUPAC_OPENEYE_NAME>
3,3,4,4,5,5,6,6,7,7,8,8,9,9,9-pentadecafluorononan-2-ol

> <PUBCHEM_IUPAC_CAS_NAME>
3,3,4,4,5,5,6,6,7,7,8,8,9,9,9-pentadecafluoro-2-nonanol

> <PUBCHEM_IUPAC_NAME_MARKUP>
3,3,4,4,5,5,6,6,7,7,8,8,9,9,9-pentadecafluorononan-2-ol

> <PUBCHEM_IUPAC_NAME>
3,3,4,4,5,5,6,6,7,7,8,8,9,9,9-pentadecafluorononan-2-ol

> <PUBCHEM_IUPAC_SYSTEMATIC_NAME>
3,3,4,4,5,5,6,6,7,7,8,8,9,9,9-pentadecakis(fluoranyl)nonan-2-ol

> <PUBCHEM_IUPAC_TRADITIONAL_NAME>
3,3,4,4,5,5,6,6,7,7,8,8,9,9,9-pentadecafluorononan-2-ol

> <PUBCHEM_IUPAC_INCHI>
InChI=1S/C9H5F15O/c1-2(25)3(10,11)4(12,13)5(14,15)6(16,17)7(18,19)8(20,21)9(22,23)24/h2,25H,1H3

> <PUBCHEM_IUPAC_INCHIKEY>
LWKNIRKCYPKSGM-UHFFFAOYSA-N

> <PUBCHEM_XLOGP3_AA>
5.1

> <PUBCHEM_EXACT_MASS>
414.0100872

> <PUBCHEM_MOLECULAR_FORMULA>
C9H5F15O

> <PUBCHEM_MOLECULAR_WEIGHT>
414.11

> <PUBCHEM_SMILES>
CC(C(C(C(C(C(C(C(F)(F)F)(F)F)(F)F)(F)F)(F)F)(F)F)(F)F)O

> <PUBCHEM_CONNECTIVITY_SMILES>
CC(C(C(C(C(C(C(C(F)(F)F)(F)F)(F)F)(F)F)(F)F)(F)F)(F)F)O

> <PUBCHEM_CACTVS_TPSA>
20.2

> <PUBCHEM_MONOISOTOPIC_WEIGHT>
414.0100872

> <PUBCHEM_TOTAL_CHARGE>
0

> <PUBCHEM_HEAVY_ATOM_COUNT>
25

> <PUBCHEM_ATOM_DEF_STEREO_COUNT>
0

> <PUBCHEM_ATOM_UDEF_STEREO_COUNT>
1

> <PUBCHEM_BOND_DEF_STEREO_COUNT>
0

> <PUBCHEM_BOND_UDEF_STEREO_COUNT>
0

> <PUBCHEM_ISOTOPIC_ATOM_COUNT>
0

> <PUBCHEM_COMPONENT_COUNT>
1

> <PUBCHEM_CACTVS_TAUTO_COUNT>
-1

> <PUBCHEM_COORDINATE_TYPE>
1
5
255

> <PUBCHEM_BONDANNOTATIONS>
23  16  3

$$$$
