13221867
  -OEChem-05122609232D

 30 31  0     0  0  0  0  0  0999 V2000
    4.6783   -0.4387    0.0000 S   0  0  0  0  0  0  0  0  0  0  0  0
    6.7619   -0.5000    0.0000 C   0  0  0  0  0  0  0  0  0  0  0  0
    6.2619    0.3660    0.0000 C   0  0  0  0  0  0  0  0  0  0  0  0
    7.7619   -0.5000    0.0000 C   0  0  0  0  0  0  0  0  0  0  0  0
    5.2619    0.3660    0.0000 C   0  0  0  0  0  0  0  0  0  0  0  0
    8.2619   -1.3660    0.0000 C   0  0  0  0  0  0  0  0  0  0  0  0
    4.6783    1.1708    0.0000 C   0  0  0  0  0  0  0  0  0  0  0  0
    3.7321    0.8660    0.0000 C   0  0  0  0  0  0  0  0  0  0  0  0
    3.7321   -0.1340    0.0000 C   0  0  0  0  0  0  0  0  0  0  0  0
    9.2619   -1.3660    0.0000 C   0  0  0  0  0  0  0  0  0  0  0  0
    2.8660    1.3660    0.0000 C   0  0  0  0  0  0  0  0  0  0  0  0
    2.8660   -0.6340    0.0000 C   0  0  0  0  0  0  0  0  0  0  0  0
    2.0000    0.8660    0.0000 C   0  0  0  0  0  0  0  0  0  0  0  0
    2.0000   -0.1340    0.0000 C   0  0  0  0  0  0  0  0  0  0  0  0
    6.1793   -0.7121    0.0000 H   0  0  0  0  0  0  0  0  0  0  0  0
    6.8695   -1.1106    0.0000 H   0  0  0  0  0  0  0  0  0  0  0  0
    6.8445    0.5781    0.0000 H   0  0  0  0  0  0  0  0  0  0  0  0
    6.1542    0.9766    0.0000 H   0  0  0  0  0  0  0  0  0  0  0  0
    8.3445   -0.2879    0.0000 H   0  0  0  0  0  0  0  0  0  0  0  0
    7.6542    0.1106    0.0000 H   0  0  0  0  0  0  0  0  0  0  0  0
    7.6793   -1.5781    0.0000 H   0  0  0  0  0  0  0  0  0  0  0  0
    8.3695   -1.9766    0.0000 H   0  0  0  0  0  0  0  0  0  0  0  0
    4.8709    1.7601    0.0000 H   0  0  0  0  0  0  0  0  0  0  0  0
    9.2619   -1.9860    0.0000 H   0  0  0  0  0  0  0  0  0  0  0  0
    9.8819   -1.3660    0.0000 H   0  0  0  0  0  0  0  0  0  0  0  0
    9.2619   -0.7460    0.0000 H   0  0  0  0  0  0  0  0  0  0  0  0
    2.8660    1.9860    0.0000 H   0  0  0  0  0  0  0  0  0  0  0  0
    2.8660   -1.2540    0.0000 H   0  0  0  0  0  0  0  0  0  0  0  0
    1.4631    1.1760    0.0000 H   0  0  0  0  0  0  0  0  0  0  0  0
    1.4631   -0.4440    0.0000 H   0  0  0  0  0  0  0  0  0  0  0  0
  1  5  1  0  0  0  0
  1  9  1  0  0  0  0
  2  3  1  0  0  0  0
  2  4  1  0  0  0  0
  2 15  1  0  0  0  0
  2 16  1  0  0  0  0
  3  5  1  0  0  0  0
  3 17  1  0  0  0  0
  3 18  1  0  0  0  0
  4  6  1  0  0  0  0
  4 19  1  0  0  0  0
  4 20  1  0  0  0  0
  5  7  2  0  0  0  0
  6 10  1  0  0  0  0
  6 21  1  0  0  0  0
  6 22  1  0  0  0  0
  7  8  1  0  0  0  0
  7 23  1  0  0  0  0
  8  9  1  0  0  0  0
  8 11  2  0  0  0  0
  9 12  2  0  0  0  0
 10 24  1  0  0  0  0
 10 25  1  0  0  0  0
 10 26  1  0  0  0  0
 11 13  1  0  0  0  0
 11 27  1  0  0  0  0
 12 14  1  0  0  0  0
 12 28  1  0  0  0  0
 13 14  2  0  0  0  0
 13 29  1  0  0  0  0
 14 30  1  0  0  0  0
M  END
> <PUBCHEM_COMPOUND_CID>
13221867

> <PUBCHEM_COMPOUND_CANONICALIZED>
1

> <PUBCHEM_CACTVS_COMPLEXITY>
167

> <PUBCHEM_CACTVS_HBOND_ACCEPTOR>
1

> <PUBCHEM_CACTVS_HBOND_DONOR>
0

> <PUBCHEM_CACTVS_ROTATABLE_BOND>
4

> <PUBCHEM_CACTVS_SUBSKEYS>
AAADceBwAABAAAAAAAAAAAAAAAAAASAAAAAwAAAAAAAAAEgB8AAAGAQAAAAADACAWAAyAcAAAAiEAiBCAAADAIAgCBBIiBgAAIgIICKgERCAIAAggAAoiAcAgMAOAAAAAAAEAAAAAAAAAAgAAAAAAAAAAA==

> <PUBCHEM_IUPAC_OPENEYE_NAME>
2-pentylbenzothiophene

> <PUBCHEM_IUPAC_CAS_NAME>
2-pentyl-1-benzothiophene

> <PUBCHEM_IUPAC_NAME_MARKUP>
2-pentyl-1-benzothiophene

> <PUBCHEM_IUPAC_NAME>
2-pentyl-1-benzothiophene

> <PUBCHEM_IUPAC_SYSTEMATIC_NAME>
2-pentyl-1-benzothiophene

> <PUBCHEM_IUPAC_TRADITIONAL_NAME>
2-amylbenzothiophene

> <PUBCHEM_IUPAC_INCHI>
InChI=1S/C13H16S/c1-2-3-4-8-12-10-11-7-5-6-9-13(11)14-12/h5-7,9-10H,2-4,8H2,1H3

> <PUBCHEM_IUPAC_INCHIKEY>
YMRWJTHTFNINDF-UHFFFAOYSA-N

> <PUBCHEM_XLOGP3_AA>
5.2

> <PUBCHEM_EXACT_MASS>
204.09727168

> <PUBCHEM_MOLECULAR_FORMULA>
C13H16S

> <PUBCHEM_MOLECULAR_WEIGHT>
204.33

> <PUBCHEM_SMILES>
CCCCCC1=CC2=CC=CC=C2S1

> <PUBCHEM_CONNECTIVITY_SMILES>
CCCCCC1=CC2=CC=CC=C2S1

> <PUBCHEM_CACTVS_TPSA>
28.2

> <PUBCHEM_MONOISOTOPIC_WEIGHT>
204.09727168

> <PUBCHEM_TOTAL_CHARGE>
0

> <PUBCHEM_HEAVY_ATOM_COUNT>
14

> <PUBCHEM_ATOM_DEF_STEREO_COUNT>
0

> <PUBCHEM_ATOM_UDEF_STEREO_COUNT>
0

> <PUBCHEM_BOND_DEF_STEREO_COUNT>
0

> <PUBCHEM_BOND_UDEF_STEREO_COUNT>
0

> <PUBCHEM_ISOTOPIC_ATOM_COUNT>
0

> <PUBCHEM_COMPONENT_COUNT>
1

> <PUBCHEM_CACTVS_TAUTO_COUNT>
-1

> <PUBCHEM_COORDINATE_TYPE>
1
5
255

> <PUBCHEM_BONDANNOTATIONS>
1  5  8
1  9  8
11  13  8
12  14  8
13  14  8
5  7  8
7  8  8
8  11  8
8  9  8
9  12  8

$$$$
