132393
  -OEChem-05122608132D

 45 47  0     1  0  0  0  0  0999 V2000
    9.4551    2.6242    0.0000 F   0  0  0  0  0  0  0  0  0  0  0  0
    8.8574    3.9059    0.0000 F   0  0  0  0  0  0  0  0  0  0  0  0
    7.5757    3.3082    0.0000 F   0  0  0  0  0  0  0  0  0  0  0  0
    7.7901   -1.5586    0.0000 O   0  0  0  0  0  0  0  0  0  0  0  0
    5.8617    0.7395    0.0000 O   0  0  0  0  0  0  0  0  0  0  0  0
    4.5349   -0.3738    0.0000 O   0  0  0  0  0  0  0  0  0  0  0  0
    6.1625   -0.9662    0.0000 C   0  0  3  0  0  0  0  0  0  0  0  0
    7.1473   -0.7926    0.0000 C   0  0  3  0  0  0  0  0  0  0  0  0
    5.8205   -1.9059    0.0000 C   0  0  0  0  0  0  0  0  0  0  0  0
    7.4893    0.1471    0.0000 C   0  0  0  0  0  0  0  0  0  0  0  0
    4.9544   -2.4059    0.0000 C   0  0  0  0  0  0  0  0  0  0  0  0
    5.5197   -0.2002    0.0000 C   0  0  0  0  0  0  0  0  0  0  0  0
    6.6865   -2.4059    0.0000 C   0  0  0  0  0  0  0  0  0  0  0  0
    3.9696   -2.2323    0.0000 C   0  0  0  0  0  0  0  0  0  0  0  0
    8.4741    0.3208    0.0000 C   0  0  0  0  0  0  0  0  0  0  0  0
    6.8465    0.9132    0.0000 C   0  0  0  0  0  0  0  0  0  0  0  0
    4.9544   -3.4059    0.0000 C   0  0  0  0  0  0  0  0  0  0  0  0
    6.6865   -3.4059    0.0000 C   0  0  0  0  0  0  0  0  0  0  0  0
    5.8205   -3.9059    0.0000 C   0  0  0  0  0  0  0  0  0  0  0  0
    8.1733    2.0265    0.0000 C   0  0  0  0  0  0  0  0  0  0  0  0
    8.8161    1.2605    0.0000 C   0  0  0  0  0  0  0  0  0  0  0  0
    7.1885    1.8529    0.0000 C   0  0  0  0  0  0  0  0  0  0  0  0
    3.6276   -1.2926    0.0000 C   0  0  0  0  0  0  0  0  0  0  0  0
    3.3268   -2.9982    0.0000 C   0  0  0  0  0  0  0  0  0  0  0  0
    8.5154    2.9662    0.0000 C   0  0  0  0  0  0  0  0  0  0  0  0
    2.6428   -1.1189    0.0000 C   0  0  0  0  0  0  0  0  0  0  0  0
    2.3420   -2.8247    0.0000 C   0  0  0  0  0  0  0  0  0  0  0  0
    2.0000   -1.8850    0.0000 C   0  0  0  0  0  0  0  0  0  0  0  0
    6.3745   -0.3836    0.0000 H   0  0  0  0  0  0  0  0  0  0  0  0
    6.9352   -1.3752    0.0000 H   0  0  0  0  0  0  0  0  0  0  0  0
    7.2234   -2.0959    0.0000 H   0  0  0  0  0  0  0  0  0  0  0  0
    8.8726   -0.1542    0.0000 H   0  0  0  0  0  0  0  0  0  0  0  0
    6.2359    0.8055    0.0000 H   0  0  0  0  0  0  0  0  0  0  0  0
    4.4175   -3.7159    0.0000 H   0  0  0  0  0  0  0  0  0  0  0  0
    8.4007   -1.4509    0.0000 H   0  0  0  0  0  0  0  0  0  0  0  0
    7.2234   -3.7159    0.0000 H   0  0  0  0  0  0  0  0  0  0  0  0
    5.8205   -4.5259    0.0000 H   0  0  0  0  0  0  0  0  0  0  0  0
    9.4267    1.3681    0.0000 H   0  0  0  0  0  0  0  0  0  0  0  0
    6.7900    2.3278    0.0000 H   0  0  0  0  0  0  0  0  0  0  0  0
    4.0261   -0.8176    0.0000 H   0  0  0  0  0  0  0  0  0  0  0  0
    3.5389   -3.5808    0.0000 H   0  0  0  0  0  0  0  0  0  0  0  0
    5.4632    1.2145    0.0000 H   0  0  0  0  0  0  0  0  0  0  0  0
    2.4307   -0.5363    0.0000 H   0  0  0  0  0  0  0  0  0  0  0  0
    1.9435   -3.2996    0.0000 H   0  0  0  0  0  0  0  0  0  0  0  0
    1.3894   -1.7773    0.0000 H   0  0  0  0  0  0  0  0  0  0  0  0
  1 25  1  0  0  0  0
  2 25  1  0  0  0  0
  3 25  1  0  0  0  0
  4  8  1  0  0  0  0
  4 35  1  0  0  0  0
  5 12  1  0  0  0  0
  5 42  1  0  0  0  0
  6 12  2  0  0  0  0
  7  8  1  0  0  0  0
  7  9  1  0  0  0  0
  7 12  1  0  0  0  0
  7 29  1  0  0  0  0
  8 10  1  0  0  0  0
  8 30  1  0  0  0  0
  9 11  1  0  0  0  0
  9 13  2  0  0  0  0
 10 15  2  0  0  0  0
 10 16  1  0  0  0  0
 11 14  1  0  0  0  0
 11 17  2  0  0  0  0
 13 18  1  0  0  0  0
 13 31  1  0  0  0  0
 14 23  2  0  0  0  0
 14 24  1  0  0  0  0
 15 21  1  0  0  0  0
 15 32  1  0  0  0  0
 16 22  2  0  0  0  0
 16 33  1  0  0  0  0
 17 19  1  0  0  0  0
 17 34  1  0  0  0  0
 18 19  2  0  0  0  0
 18 36  1  0  0  0  0
 19 37  1  0  0  0  0
 20 21  2  0  0  0  0
 20 22  1  0  0  0  0
 20 25  1  0  0  0  0
 21 38  1  0  0  0  0
 22 39  1  0  0  0  0
 23 26  1  0  0  0  0
 23 40  1  0  0  0  0
 24 27  2  0  0  0  0
 24 41  1  0  0  0  0
 26 28  2  0  0  0  0
 26 43  1  0  0  0  0
 27 28  1  0  0  0  0
 27 44  1  0  0  0  0
 28 45  1  0  0  0  0
M  END
> <PUBCHEM_COMPOUND_CID>
132393

> <PUBCHEM_COMPOUND_CANONICALIZED>
1

> <PUBCHEM_CACTVS_COMPLEXITY>
508

> <PUBCHEM_CACTVS_HBOND_ACCEPTOR>
6

> <PUBCHEM_CACTVS_HBOND_DONOR>
2

> <PUBCHEM_CACTVS_ROTATABLE_BOND>
5

> <PUBCHEM_CACTVS_SUBSKEYS>
AAADceB4MYAAAAAAAAAAAAAAAAAAAAAAAAAwYMAAAAAAAAABUAAAGwAACAAADRSgmBIwCIAAAgCIAiDSCAACAAAgAAAIiAEACIgINjaAFRCAcAAl4AEImAeIyPCOwAAAAAAQAACAAAAAACAAAAAAAAAAAA==

> <PUBCHEM_IUPAC_OPENEYE_NAME>
3-hydroxy-2-(2-phenylphenyl)-3-[4-(trifluoromethyl)phenyl]propanoic acid

> <PUBCHEM_IUPAC_CAS_NAME>
3-hydroxy-2-(2-phenylphenyl)-3-[4-(trifluoromethyl)phenyl]propanoic acid

> <PUBCHEM_IUPAC_NAME_MARKUP>
3-hydroxy-2-(2-phenylphenyl)-3-[4-(trifluoromethyl)phenyl]propanoic acid

> <PUBCHEM_IUPAC_NAME>
3-hydroxy-2-(2-phenylphenyl)-3-[4-(trifluoromethyl)phenyl]propanoic acid

> <PUBCHEM_IUPAC_SYSTEMATIC_NAME>
3-oxidanyl-2-(2-phenylphenyl)-3-[4-(trifluoromethyl)phenyl]propanoic acid

> <PUBCHEM_IUPAC_TRADITIONAL_NAME>
3-hydroxy-2-(2-phenylphenyl)-3-[4-(trifluoromethyl)phenyl]propionic acid

> <PUBCHEM_IUPAC_INCHI>
InChI=1S/C22H17F3O3/c23-22(24,25)16-12-10-15(11-13-16)20(26)19(21(27)28)18-9-5-4-8-17(18)14-6-2-1-3-7-14/h1-13,19-20,26H,(H,27,28)

> <PUBCHEM_IUPAC_INCHIKEY>
WZCPXDVHGSRSLT-UHFFFAOYSA-N

> <PUBCHEM_XLOGP3>
4.5

> <PUBCHEM_EXACT_MASS>
386.11297889

> <PUBCHEM_MOLECULAR_FORMULA>
C22H17F3O3

> <PUBCHEM_MOLECULAR_WEIGHT>
386.4

> <PUBCHEM_SMILES>
C1=CC=C(C=C1)C2=CC=CC=C2C(C(C3=CC=C(C=C3)C(F)(F)F)O)C(=O)O

> <PUBCHEM_CONNECTIVITY_SMILES>
C1=CC=C(C=C1)C2=CC=CC=C2C(C(C3=CC=C(C=C3)C(F)(F)F)O)C(=O)O

> <PUBCHEM_CACTVS_TPSA>
57.5

> <PUBCHEM_MONOISOTOPIC_WEIGHT>
386.11297889

> <PUBCHEM_TOTAL_CHARGE>
0

> <PUBCHEM_HEAVY_ATOM_COUNT>
28

> <PUBCHEM_ATOM_DEF_STEREO_COUNT>
0

> <PUBCHEM_ATOM_UDEF_STEREO_COUNT>
2

> <PUBCHEM_BOND_DEF_STEREO_COUNT>
0

> <PUBCHEM_BOND_UDEF_STEREO_COUNT>
0

> <PUBCHEM_ISOTOPIC_ATOM_COUNT>
0

> <PUBCHEM_COMPONENT_COUNT>
1

> <PUBCHEM_CACTVS_TAUTO_COUNT>
-1

> <PUBCHEM_COORDINATE_TYPE>
1
5
255

> <PUBCHEM_BONDANNOTATIONS>
10  15  8
10  16  8
11  17  8
13  18  8
14  23  8
14  24  8
15  21  8
16  22  8
17  19  8
18  19  8
20  21  8
20  22  8
23  26  8
24  27  8
26  28  8
27  28  8
8  4  3
7  12  3
9  11  8
9  13  8

$$$$
