133914
  -OEChem-05122608282D

 86 85  0     0  0  0  0  0  0999 V2000
   10.2942   -1.2990    0.0000 O   0  0  0  0  0  0  0  0  0  0  0  0
   11.5263   -0.4330    0.0000 O   0  0  0  0  0  0  0  0  0  0  0  0
    7.1962   -0.9330    0.0000 O   0  0  0  0  0  0  0  0  0  0  0  0
    9.2942    2.1651    0.0000 O   0  0  0  0  0  0  0  0  0  0  0  0
   11.3030    0.8330    0.0000 O   0  0  0  0  0  0  0  0  0  0  0  0
    8.0622    0.5670    0.0000 O   0  0  0  0  0  0  0  0  0  0  0  0
   10.5603    1.9418    0.0000 O   0  0  0  0  0  0  0  0  0  0  0  0
    8.7942   -2.1651    0.0000 O   0  0  0  0  0  0  0  0  0  0  0  0
    9.7942   -0.4330    0.0000 C   0  0  0  0  0  0  0  0  0  0  0  0
    8.9282   -0.9330    0.0000 C   0  0  0  0  0  0  0  0  0  0  0  0
    9.2942    0.4330    0.0000 C   0  0  0  0  0  0  0  0  0  0  0  0
   10.6603    0.0670    0.0000 C   0  0  0  0  0  0  0  0  0  0  0  0
   13.2583   -0.4330    0.0000 C   0  0  0  0  0  0  0  0  0  0  0  0
   14.1244    0.0670    0.0000 C   0  0  0  0  0  0  0  0  0  0  0  0
   12.3923    0.0670    0.0000 C   0  0  0  0  0  0  0  0  0  0  0  0
    8.0622   -0.4330    0.0000 C   0  0  0  0  0  0  0  0  0  0  0  0
    9.7942    1.2990    0.0000 C   0  0  0  0  0  0  0  0  0  0  0  0
   14.9904   -0.4330    0.0000 C   0  0  0  0  0  0  0  0  0  0  0  0
    5.4641   -0.9330    0.0000 C   0  0  0  0  0  0  0  0  0  0  0  0
    7.7942    3.0311    0.0000 C   0  0  0  0  0  0  0  0  0  0  0  0
    4.5981   -0.4330    0.0000 C   0  0  0  0  0  0  0  0  0  0  0  0
    6.7942    3.0311    0.0000 C   0  0  0  0  0  0  0  0  0  0  0  0
    6.3301   -0.4330    0.0000 C   0  0  0  0  0  0  0  0  0  0  0  0
    8.2942    2.1651    0.0000 C   0  0  0  0  0  0  0  0  0  0  0  0
    3.7321   -0.9330    0.0000 C   0  0  0  0  0  0  0  0  0  0  0  0
    6.2942    3.8971    0.0000 C   0  0  0  0  0  0  0  0  0  0  0  0
    9.7942   -2.1651    0.0000 C   0  0  0  0  0  0  0  0  0  0  0  0
   15.8564    0.0670    0.0000 C   0  0  0  0  0  0  0  0  0  0  0  0
    2.8660   -0.4330    0.0000 C   0  0  0  0  0  0  0  0  0  0  0  0
    5.2942    3.8971    0.0000 C   0  0  0  0  0  0  0  0  0  0  0  0
   10.2942   -3.0311    0.0000 C   0  0  0  0  0  0  0  0  0  0  0  0
    9.7942   -3.8971    0.0000 C   0  0  0  0  0  0  0  0  0  0  0  0
   16.7224   -0.4330    0.0000 C   0  0  0  0  0  0  0  0  0  0  0  0
    2.0000   -0.9330    0.0000 C   0  0  0  0  0  0  0  0  0  0  0  0
    4.7942    4.7631    0.0000 C   0  0  0  0  0  0  0  0  0  0  0  0
   10.2942   -4.7631    0.0000 C   0  0  0  0  0  0  0  0  0  0  0  0
    8.5297   -1.4080    0.0000 H   0  0  0  0  0  0  0  0  0  0  0  0
    9.3267   -1.4080    0.0000 H   0  0  0  0  0  0  0  0  0  0  0  0
    8.8193    0.8315    0.0000 H   0  0  0  0  0  0  0  0  0  0  0  0
    8.8193    0.0345    0.0000 H   0  0  0  0  0  0  0  0  0  0  0  0
   12.8598   -0.9080    0.0000 H   0  0  0  0  0  0  0  0  0  0  0  0
   13.6569   -0.9080    0.0000 H   0  0  0  0  0  0  0  0  0  0  0  0
   14.5229    0.5419    0.0000 H   0  0  0  0  0  0  0  0  0  0  0  0
   13.7258    0.5419    0.0000 H   0  0  0  0  0  0  0  0  0  0  0  0
   12.7908    0.5419    0.0000 H   0  0  0  0  0  0  0  0  0  0  0  0
   11.9938    0.5419    0.0000 H   0  0  0  0  0  0  0  0  0  0  0  0
   14.5919   -0.9080    0.0000 H   0  0  0  0  0  0  0  0  0  0  0  0
   15.3889   -0.9080    0.0000 H   0  0  0  0  0  0  0  0  0  0  0  0
    5.0656   -1.4080    0.0000 H   0  0  0  0  0  0  0  0  0  0  0  0
    5.8626   -1.4080    0.0000 H   0  0  0  0  0  0  0  0  0  0  0  0
    8.3768    3.2431    0.0000 H   0  0  0  0  0  0  0  0  0  0  0  0
    7.6866    3.6417    0.0000 H   0  0  0  0  0  0  0  0  0  0  0  0
    4.9966    0.0419    0.0000 H   0  0  0  0  0  0  0  0  0  0  0  0
    4.1996    0.0419    0.0000 H   0  0  0  0  0  0  0  0  0  0  0  0
    6.2116    2.8190    0.0000 H   0  0  0  0  0  0  0  0  0  0  0  0
    6.9019    2.4205    0.0000 H   0  0  0  0  0  0  0  0  0  0  0  0
    6.7287    0.0419    0.0000 H   0  0  0  0  0  0  0  0  0  0  0  0
    5.9316    0.0419    0.0000 H   0  0  0  0  0  0  0  0  0  0  0  0
    7.7116    1.9530    0.0000 H   0  0  0  0  0  0  0  0  0  0  0  0
    8.4019    1.5545    0.0000 H   0  0  0  0  0  0  0  0  0  0  0  0
    3.3335   -1.4080    0.0000 H   0  0  0  0  0  0  0  0  0  0  0  0
    4.1306   -1.4080    0.0000 H   0  0  0  0  0  0  0  0  0  0  0  0
    6.8768    4.1092    0.0000 H   0  0  0  0  0  0  0  0  0  0  0  0
    6.1866    4.5077    0.0000 H   0  0  0  0  0  0  0  0  0  0  0  0
   16.2549    0.5419    0.0000 H   0  0  0  0  0  0  0  0  0  0  0  0
   15.4579    0.5419    0.0000 H   0  0  0  0  0  0  0  0  0  0  0  0
    3.2646    0.0419    0.0000 H   0  0  0  0  0  0  0  0  0  0  0  0
    2.4675    0.0419    0.0000 H   0  0  0  0  0  0  0  0  0  0  0  0
    4.7116    3.6851    0.0000 H   0  0  0  0  0  0  0  0  0  0  0  0
    5.4019    3.2865    0.0000 H   0  0  0  0  0  0  0  0  0  0  0  0
   10.7692   -3.4296    0.0000 H   0  0  0  0  0  0  0  0  0  0  0  0
   10.7692   -2.6326    0.0000 H   0  0  0  0  0  0  0  0  0  0  0  0
    9.3193   -3.4986    0.0000 H   0  0  0  0  0  0  0  0  0  0  0  0
    9.3193   -4.2956    0.0000 H   0  0  0  0  0  0  0  0  0  0  0  0
   16.4124   -0.9699    0.0000 H   0  0  0  0  0  0  0  0  0  0  0  0
   17.2594   -0.7430    0.0000 H   0  0  0  0  0  0  0  0  0  0  0  0
   17.0324    0.1039    0.0000 H   0  0  0  0  0  0  0  0  0  0  0  0
    1.6900   -0.3961    0.0000 H   0  0  0  0  0  0  0  0  0  0  0  0
    1.4631   -1.2430    0.0000 H   0  0  0  0  0  0  0  0  0  0  0  0
    2.3100   -1.4700    0.0000 H   0  0  0  0  0  0  0  0  0  0  0  0
    5.3312    5.0731    0.0000 H   0  0  0  0  0  0  0  0  0  0  0  0
    4.4842    5.3001    0.0000 H   0  0  0  0  0  0  0  0  0  0  0  0
    4.2573    4.4531    0.0000 H   0  0  0  0  0  0  0  0  0  0  0  0
    9.7573   -5.0731    0.0000 H   0  0  0  0  0  0  0  0  0  0  0  0
   10.6042   -5.3001    0.0000 H   0  0  0  0  0  0  0  0  0  0  0  0
   10.8312   -4.4531    0.0000 H   0  0  0  0  0  0  0  0  0  0  0  0
  1  9  1  0  0  0  0
  1 27  1  0  0  0  0
  2 12  1  0  0  0  0
  2 15  1  0  0  0  0
  3 16  1  0  0  0  0
  3 23  1  0  0  0  0
  4 17  1  0  0  0  0
  4 24  1  0  0  0  0
  5 12  2  0  0  0  0
  6 16  2  0  0  0  0
  7 17  2  0  0  0  0
  8 27  2  0  0  0  0
  9 10  1  0  0  0  0
  9 11  1  0  0  0  0
  9 12  1  0  0  0  0
 10 16  1  0  0  0  0
 10 37  1  0  0  0  0
 10 38  1  0  0  0  0
 11 17  1  0  0  0  0
 11 39  1  0  0  0  0
 11 40  1  0  0  0  0
 13 14  1  0  0  0  0
 13 15  1  0  0  0  0
 13 41  1  0  0  0  0
 13 42  1  0  0  0  0
 14 18  1  0  0  0  0
 14 43  1  0  0  0  0
 14 44  1  0  0  0  0
 15 45  1  0  0  0  0
 15 46  1  0  0  0  0
 18 28  1  0  0  0  0
 18 47  1  0  0  0  0
 18 48  1  0  0  0  0
 19 21  1  0  0  0  0
 19 23  1  0  0  0  0
 19 49  1  0  0  0  0
 19 50  1  0  0  0  0
 20 22  1  0  0  0  0
 20 24  1  0  0  0  0
 20 51  1  0  0  0  0
 20 52  1  0  0  0  0
 21 25  1  0  0  0  0
 21 53  1  0  0  0  0
 21 54  1  0  0  0  0
 22 26  1  0  0  0  0
 22 55  1  0  0  0  0
 22 56  1  0  0  0  0
 23 57  1  0  0  0  0
 23 58  1  0  0  0  0
 24 59  1  0  0  0  0
 24 60  1  0  0  0  0
 25 29  1  0  0  0  0
 25 61  1  0  0  0  0
 25 62  1  0  0  0  0
 26 30  1  0  0  0  0
 26 63  1  0  0  0  0
 26 64  1  0  0  0  0
 27 31  1  0  0  0  0
 28 33  1  0  0  0  0
 28 65  1  0  0  0  0
 28 66  1  0  0  0  0
 29 34  1  0  0  0  0
 29 67  1  0  0  0  0
 29 68  1  0  0  0  0
 30 35  1  0  0  0  0
 30 69  1  0  0  0  0
 30 70  1  0  0  0  0
 31 32  1  0  0  0  0
 31 71  1  0  0  0  0
 31 72  1  0  0  0  0
 32 36  1  0  0  0  0
 32 73  1  0  0  0  0
 32 74  1  0  0  0  0
 33 75  1  0  0  0  0
 33 76  1  0  0  0  0
 33 77  1  0  0  0  0
 34 78  1  0  0  0  0
 34 79  1  0  0  0  0
 34 80  1  0  0  0  0
 35 81  1  0  0  0  0
 35 82  1  0  0  0  0
 35 83  1  0  0  0  0
 36 84  1  0  0  0  0
 36 85  1  0  0  0  0
 36 86  1  0  0  0  0
M  END
> <PUBCHEM_COMPOUND_CID>
133914

> <PUBCHEM_COMPOUND_CANONICALIZED>
1

> <PUBCHEM_CACTVS_COMPLEXITY>
589

> <PUBCHEM_CACTVS_HBOND_ACCEPTOR>
8

> <PUBCHEM_CACTVS_HBOND_DONOR>
0

> <PUBCHEM_CACTVS_ROTATABLE_BOND>
27

> <PUBCHEM_CACTVS_SUBSKEYS>
AAADcfB4PAAAAAAAAAAAAAAAAAAAAAAAAAAAAAAAAAAAAAAAAAAAGgAAAAAADESggAICCAAABAAIAACQCAIAAAAAAAAAAAFAAAABABYAAAQCAAAFIAACAAHLZggKAAAAAAAAAAAAAAAAAAAAAAAAAAAAAA==

> <PUBCHEM_IUPAC_OPENEYE_NAME>
trihexyl 2-butanoyloxypropane-1,2,3-tricarboxylate

> <PUBCHEM_IUPAC_CAS_NAME>
2-(1-oxobutoxy)propane-1,2,3-tricarboxylic acid trihexyl ester

> <PUBCHEM_IUPAC_NAME_MARKUP>
trihexyl 2-butanoyloxypropane-1,2,3-tricarboxylate

> <PUBCHEM_IUPAC_NAME>
trihexyl 2-butanoyloxypropane-1,2,3-tricarboxylate

> <PUBCHEM_IUPAC_SYSTEMATIC_NAME>
trihexyl 2-butanoyloxypropane-1,2,3-tricarboxylate

> <PUBCHEM_IUPAC_TRADITIONAL_NAME>
2-butyryloxypropane-1,2,3-tricarboxylic acid trihexyl ester

> <PUBCHEM_IUPAC_INCHI>
InChI=1S/C28H50O8/c1-5-9-12-15-19-33-25(30)22-28(36-24(29)18-8-4,27(32)35-21-17-14-11-7-3)23-26(31)34-20-16-13-10-6-2/h5-23H2,1-4H3

> <PUBCHEM_IUPAC_INCHIKEY>
GWVUTNGDMGTPFE-UHFFFAOYSA-N

> <PUBCHEM_XLOGP3_AA>
7.4

> <PUBCHEM_EXACT_MASS>
514.35056855

> <PUBCHEM_MOLECULAR_FORMULA>
C28H50O8

> <PUBCHEM_MOLECULAR_WEIGHT>
514.7

> <PUBCHEM_SMILES>
CCCCCCOC(=O)CC(CC(=O)OCCCCCC)(C(=O)OCCCCCC)OC(=O)CCC

> <PUBCHEM_CONNECTIVITY_SMILES>
CCCCCCOC(=O)CC(CC(=O)OCCCCCC)(C(=O)OCCCCCC)OC(=O)CCC

> <PUBCHEM_CACTVS_TPSA>
105

> <PUBCHEM_MONOISOTOPIC_WEIGHT>
514.35056855

> <PUBCHEM_TOTAL_CHARGE>
0

> <PUBCHEM_HEAVY_ATOM_COUNT>
36

> <PUBCHEM_ATOM_DEF_STEREO_COUNT>
0

> <PUBCHEM_ATOM_UDEF_STEREO_COUNT>
0

> <PUBCHEM_BOND_DEF_STEREO_COUNT>
0

> <PUBCHEM_BOND_UDEF_STEREO_COUNT>
0

> <PUBCHEM_ISOTOPIC_ATOM_COUNT>
0

> <PUBCHEM_COMPONENT_COUNT>
1

> <PUBCHEM_CACTVS_TAUTO_COUNT>
-1

> <PUBCHEM_COORDINATE_TYPE>
1
5
255

$$$$
