13450
  -OEChem-05122608152D

 35 35  0     0  0  0  0  0  0999 V2000
    4.7321   -2.2500    0.0000 S   0  0  0  0  0  0  0  0  0  0  0  0
    3.0000    0.7500    0.0000 N   0  0  0  0  0  0  0  0  0  0  0  0
    4.7321    0.7500    0.0000 N   0  0  0  0  0  0  0  0  0  0  0  0
    3.8660   -0.7500    0.0000 N   0  0  0  0  0  0  0  0  0  0  0  0
    6.4641    0.7500    0.0000 N   0  0  0  0  0  0  0  0  0  0  0  0
    5.5981   -0.7500    0.0000 N   0  0  0  0  0  0  0  0  0  0  0  0
    3.0000    1.7500    0.0000 C   0  0  0  0  0  0  0  0  0  0  0  0
    3.0000    2.7500    0.0000 C   0  0  0  0  0  0  0  0  0  0  0  0
    2.0000    1.7500    0.0000 C   0  0  0  0  0  0  0  0  0  0  0  0
    4.0000    1.7500    0.0000 C   0  0  0  0  0  0  0  0  0  0  0  0
    3.8660    0.2500    0.0000 C   0  0  0  0  0  0  0  0  0  0  0  0
    5.5981    0.2500    0.0000 C   0  0  0  0  0  0  0  0  0  0  0  0
    7.3301    0.2500    0.0000 C   0  0  0  0  0  0  0  0  0  0  0  0
    4.7321   -1.2500    0.0000 C   0  0  0  0  0  0  0  0  0  0  0  0
    8.1962    0.7500    0.0000 C   0  0  0  0  0  0  0  0  0  0  0  0
    5.5981   -2.7500    0.0000 C   0  0  0  0  0  0  0  0  0  0  0  0
    3.6200    2.7500    0.0000 H   0  0  0  0  0  0  0  0  0  0  0  0
    3.0000    3.3700    0.0000 H   0  0  0  0  0  0  0  0  0  0  0  0
    2.3800    2.7500    0.0000 H   0  0  0  0  0  0  0  0  0  0  0  0
    2.0000    2.3700    0.0000 H   0  0  0  0  0  0  0  0  0  0  0  0
    1.3800    1.7500    0.0000 H   0  0  0  0  0  0  0  0  0  0  0  0
    2.0000    1.1300    0.0000 H   0  0  0  0  0  0  0  0  0  0  0  0
    4.0000    1.1300    0.0000 H   0  0  0  0  0  0  0  0  0  0  0  0
    4.6200    1.7500    0.0000 H   0  0  0  0  0  0  0  0  0  0  0  0
    4.0000    2.3700    0.0000 H   0  0  0  0  0  0  0  0  0  0  0  0
    2.4631    0.4400    0.0000 H   0  0  0  0  0  0  0  0  0  0  0  0
    6.4641    1.3700    0.0000 H   0  0  0  0  0  0  0  0  0  0  0  0
    6.9316   -0.2249    0.0000 H   0  0  0  0  0  0  0  0  0  0  0  0
    7.7287   -0.2249    0.0000 H   0  0  0  0  0  0  0  0  0  0  0  0
    8.5062    0.2131    0.0000 H   0  0  0  0  0  0  0  0  0  0  0  0
    8.7331    1.0600    0.0000 H   0  0  0  0  0  0  0  0  0  0  0  0
    7.8862    1.2869    0.0000 H   0  0  0  0  0  0  0  0  0  0  0  0
    5.2881   -3.2869    0.0000 H   0  0  0  0  0  0  0  0  0  0  0  0
    6.1350   -3.0600    0.0000 H   0  0  0  0  0  0  0  0  0  0  0  0
    5.9081   -2.2131    0.0000 H   0  0  0  0  0  0  0  0  0  0  0  0
  1 14  1  0  0  0  0
  1 16  1  0  0  0  0
  2  7  1  0  0  0  0
  2 11  1  0  0  0  0
  2 26  1  0  0  0  0
  3 11  1  0  0  0  0
  3 12  2  0  0  0  0
  4 11  2  0  0  0  0
  4 14  1  0  0  0  0
  5 12  1  0  0  0  0
  5 13  1  0  0  0  0
  5 27  1  0  0  0  0
  6 12  1  0  0  0  0
  6 14  2  0  0  0  0
  7  8  1  0  0  0  0
  7  9  1  0  0  0  0
  7 10  1  0  0  0  0
  8 17  1  0  0  0  0
  8 18  1  0  0  0  0
  8 19  1  0  0  0  0
  9 20  1  0  0  0  0
  9 21  1  0  0  0  0
  9 22  1  0  0  0  0
 10 23  1  0  0  0  0
 10 24  1  0  0  0  0
 10 25  1  0  0  0  0
 13 15  1  0  0  0  0
 13 28  1  0  0  0  0
 13 29  1  0  0  0  0
 15 30  1  0  0  0  0
 15 31  1  0  0  0  0
 15 32  1  0  0  0  0
 16 33  1  0  0  0  0
 16 34  1  0  0  0  0
 16 35  1  0  0  0  0
M  END
> <PUBCHEM_COMPOUND_CID>
13450

> <PUBCHEM_COMPOUND_CANONICALIZED>
1

> <PUBCHEM_CACTVS_COMPLEXITY>
206

> <PUBCHEM_CACTVS_HBOND_ACCEPTOR>
6

> <PUBCHEM_CACTVS_HBOND_DONOR>
2

> <PUBCHEM_CACTVS_ROTATABLE_BOND>
5

> <PUBCHEM_CACTVS_SUBSKEYS>
AAADceBzgABAAAAAAAAAAAAAAAAAAAAAAAAsAAAAAAAAAAABgAAAHAQQAAAADIjBAASDEAbIEAggAAAAJAAAUAlAAIABAIAIAACACAAACAAAAAAIEAIAAAAAAAAAAAAAAAAAAAAAAAAAAAAAAAAAAAAAAA==

> <PUBCHEM_IUPAC_OPENEYE_NAME>
N2-tert-butyl-N4-ethyl-6-methylsulfanyl-1,3,5-triazine-2,4-diamine

> <PUBCHEM_IUPAC_CAS_NAME>
N2-tert-butyl-N4-ethyl-6-(methylthio)-1,3,5-triazine-2,4-diamine

> <PUBCHEM_IUPAC_NAME_MARKUP>
2-<I>N</I>-<I>tert</I>-butyl-4-<I>N</I>-ethyl-6-methylsulfanyl-1,3,5-triazine-2,4-diamine

> <PUBCHEM_IUPAC_NAME>
2-N-tert-butyl-4-N-ethyl-6-methylsulfanyl-1,3,5-triazine-2,4-diamine

> <PUBCHEM_IUPAC_SYSTEMATIC_NAME>
N2-tert-butyl-N4-ethyl-6-methylsulfanyl-1,3,5-triazine-2,4-diamine

> <PUBCHEM_IUPAC_TRADITIONAL_NAME>
tert-butyl-[4-(ethylamino)-6-(methylthio)-s-triazin-2-yl]amine

> <PUBCHEM_IUPAC_INCHI>
InChI=1S/C10H19N5S/c1-6-11-7-12-8(15-10(2,3)4)14-9(13-7)16-5/h6H2,1-5H3,(H2,11,12,13,14,15)

> <PUBCHEM_IUPAC_INCHIKEY>
IROINLKCQGIITA-UHFFFAOYSA-N

> <PUBCHEM_XLOGP3>
3.7

> <PUBCHEM_EXACT_MASS>
241.13611680

> <PUBCHEM_MOLECULAR_FORMULA>
C10H19N5S

> <PUBCHEM_MOLECULAR_WEIGHT>
241.36

> <PUBCHEM_SMILES>
CCNC1=NC(=NC(=N1)SC)NC(C)(C)C

> <PUBCHEM_CONNECTIVITY_SMILES>
CCNC1=NC(=NC(=N1)SC)NC(C)(C)C

> <PUBCHEM_CACTVS_TPSA>
88

> <PUBCHEM_MONOISOTOPIC_WEIGHT>
241.13611680

> <PUBCHEM_TOTAL_CHARGE>
0

> <PUBCHEM_HEAVY_ATOM_COUNT>
16

> <PUBCHEM_ATOM_DEF_STEREO_COUNT>
0

> <PUBCHEM_ATOM_UDEF_STEREO_COUNT>
0

> <PUBCHEM_BOND_DEF_STEREO_COUNT>
0

> <PUBCHEM_BOND_UDEF_STEREO_COUNT>
0

> <PUBCHEM_ISOTOPIC_ATOM_COUNT>
0

> <PUBCHEM_COMPONENT_COUNT>
1

> <PUBCHEM_CACTVS_TAUTO_COUNT>
-1

> <PUBCHEM_COORDINATE_TYPE>
1
5
255

> <PUBCHEM_BONDANNOTATIONS>
3  11  8
3  12  8
4  11  8
4  14  8
6  12  8
6  14  8

$$$$
