134692469
  -OEChem-05122608402D

 46 44  0     1  0  0  0  0  0999 V2000
    3.1350    2.1200    0.0000 O   0  0  0  0  0  0  0  0  0  0  0  0
    3.1350    6.2150    0.0000 O   0  0  0  0  0  0  0  0  0  0  0  0
    0.5369    1.6200    0.0000 O   0  0  0  0  0  0  0  0  0  0  0  0
    5.7331    1.6200    0.0000 O   0  0  0  0  0  0  0  0  0  0  0  0
    0.5369    6.7150    0.0000 O   0  0  0  0  0  0  0  0  0  0  0  0
    5.7331    6.7150    0.0000 O   0  0  0  0  0  0  0  0  0  0  0  0
    2.2690    1.6200    0.0000 C   0  0  3  0  0  0  0  0  0  0  0  0
    4.0010    1.6200    0.0000 C   0  0  3  0  0  0  0  0  0  0  0  0
    1.4030    2.1200    0.0000 C   0  0  0  0  0  0  0  0  0  0  0  0
    4.8671    2.1200    0.0000 C   0  0  0  0  0  0  0  0  0  0  0  0
    2.2690    0.6200    0.0000 C   0  0  0  0  0  0  0  0  0  0  0  0
    4.0010    0.6200    0.0000 C   0  0  0  0  0  0  0  0  0  0  0  0
    1.4030    6.2150    0.0000 C   0  0  3  0  0  0  0  0  0  0  0  0
    4.8671    6.2150    0.0000 C   0  0  3  0  0  0  0  0  0  0  0  0
    2.2690    6.7150    0.0000 C   0  0  0  0  0  0  0  0  0  0  0  0
    4.0010    6.7150    0.0000 C   0  0  0  0  0  0  0  0  0  0  0  0
    1.4030    5.2150    0.0000 C   0  0  0  0  0  0  0  0  0  0  0  0
    4.8671    5.2150    0.0000 C   0  0  0  0  0  0  0  0  0  0  0  0
    2.2690    2.2400    0.0000 H   0  0  0  0  0  0  0  0  0  0  0  0
    3.4641    1.3100    0.0000 H   0  0  0  0  0  0  0  0  0  0  0  0
    1.8015    2.5950    0.0000 H   0  0  0  0  0  0  0  0  0  0  0  0
    1.0044    2.5950    0.0000 H   0  0  0  0  0  0  0  0  0  0  0  0
    5.2656    2.5950    0.0000 H   0  0  0  0  0  0  0  0  0  0  0  0
    4.4685    2.5950    0.0000 H   0  0  0  0  0  0  0  0  0  0  0  0
    1.6490    0.6200    0.0000 H   0  0  0  0  0  0  0  0  0  0  0  0
    2.2690    0.0000    0.0000 H   0  0  0  0  0  0  0  0  0  0  0  0
    2.8890    0.6200    0.0000 H   0  0  0  0  0  0  0  0  0  0  0  0
    3.3810    0.6200    0.0000 H   0  0  0  0  0  0  0  0  0  0  0  0
    4.0010    0.0000    0.0000 H   0  0  0  0  0  0  0  0  0  0  0  0
    4.6210    0.6200    0.0000 H   0  0  0  0  0  0  0  0  0  0  0  0
    0.8660    5.9050    0.0000 H   0  0  0  0  0  0  0  0  0  0  0  0
    4.8671    6.8350    0.0000 H   0  0  0  0  0  0  0  0  0  0  0  0
    2.6675    7.1899    0.0000 H   0  0  0  0  0  0  0  0  0  0  0  0
    1.8705    7.1899    0.0000 H   0  0  0  0  0  0  0  0  0  0  0  0
    4.3996    7.1899    0.0000 H   0  0  0  0  0  0  0  0  0  0  0  0
    3.6025    7.1899    0.0000 H   0  0  0  0  0  0  0  0  0  0  0  0
    0.7830    5.2150    0.0000 H   0  0  0  0  0  0  0  0  0  0  0  0
    1.4030    4.5950    0.0000 H   0  0  0  0  0  0  0  0  0  0  0  0
    2.0230    5.2150    0.0000 H   0  0  0  0  0  0  0  0  0  0  0  0
    4.2471    5.2150    0.0000 H   0  0  0  0  0  0  0  0  0  0  0  0
    4.8671    4.5950    0.0000 H   0  0  0  0  0  0  0  0  0  0  0  0
    5.4871    5.2150    0.0000 H   0  0  0  0  0  0  0  0  0  0  0  0
    0.0000    1.9300    0.0000 H   0  0  0  0  0  0  0  0  0  0  0  0
    6.2700    1.9300    0.0000 H   0  0  0  0  0  0  0  0  0  0  0  0
    0.0000    6.4050    0.0000 H   0  0  0  0  0  0  0  0  0  0  0  0
    6.2700    6.4050    0.0000 H   0  0  0  0  0  0  0  0  0  0  0  0
  1  7  1  0  0  0  0
  1  8  1  0  0  0  0
  2 15  1  0  0  0  0
  2 16  1  0  0  0  0
  3  9  1  0  0  0  0
  3 43  1  0  0  0  0
  4 10  1  0  0  0  0
  4 44  1  0  0  0  0
  5 13  1  0  0  0  0
  5 45  1  0  0  0  0
  6 14  1  0  0  0  0
  6 46  1  0  0  0  0
  7  9  1  0  0  0  0
  7 11  1  0  0  0  0
  7 19  1  0  0  0  0
  8 10  1  0  0  0  0
  8 12  1  0  0  0  0
  8 20  1  0  0  0  0
  9 21  1  0  0  0  0
  9 22  1  0  0  0  0
 10 23  1  0  0  0  0
 10 24  1  0  0  0  0
 11 25  1  0  0  0  0
 11 26  1  0  0  0  0
 11 27  1  0  0  0  0
 12 28  1  0  0  0  0
 12 29  1  0  0  0  0
 12 30  1  0  0  0  0
 13 15  1  0  0  0  0
 13 17  1  0  0  0  0
 13 31  1  0  0  0  0
 14 16  1  0  0  0  0
 14 18  1  0  0  0  0
 14 32  1  0  0  0  0
 15 33  1  0  0  0  0
 15 34  1  0  0  0  0
 16 35  1  0  0  0  0
 16 36  1  0  0  0  0
 17 37  1  0  0  0  0
 17 38  1  0  0  0  0
 17 39  1  0  0  0  0
 18 40  1  0  0  0  0
 18 41  1  0  0  0  0
 18 42  1  0  0  0  0
M  END
> <PUBCHEM_COMPOUND_CID>
134692469

> <PUBCHEM_COMPOUND_CANONICALIZED>
1

> <PUBCHEM_CACTVS_COMPLEXITY>
115

> <PUBCHEM_CACTVS_HBOND_ACCEPTOR>
6

> <PUBCHEM_CACTVS_HBOND_DONOR>
4

> <PUBCHEM_CACTVS_ROTATABLE_BOND>
8

> <PUBCHEM_CACTVS_SUBSKEYS>
AAADceBwOAAAAAAAAAAAAAAAAAAAAAAAAAAAAAAAAAAAAAAAAAAAGgAACAAACBSggAICAAAABgAAAAAAAAAAAAAAAAAAAAAAAAABEAAAAAACQAAAAAADAAAAAAAAAAAAAAAAAAAAAAAAAAAAAAAAAAAAAA==

> <PUBCHEM_IUPAC_OPENEYE_NAME>
2-(2-hydroxy-1-methyl-ethoxy)propan-1-ol;1-(2-hydroxypropoxy)propan-2-ol

> <PUBCHEM_IUPAC_CAS_NAME>
2-(1-hydroxypropan-2-yloxy)-1-propanol;1-(2-hydroxypropoxy)-2-propanol

> <PUBCHEM_IUPAC_NAME_MARKUP>
2-(1-hydroxypropan-2-yloxy)propan-1-ol;1-(2-hydroxypropoxy)propan-2-ol

> <PUBCHEM_IUPAC_NAME>
2-(1-hydroxypropan-2-yloxy)propan-1-ol;1-(2-hydroxypropoxy)propan-2-ol

> <PUBCHEM_IUPAC_SYSTEMATIC_NAME>
2-(1-oxidanylpropan-2-yloxy)propan-1-ol;1-(2-oxidanylpropoxy)propan-2-ol

> <PUBCHEM_IUPAC_TRADITIONAL_NAME>
2-(2-hydroxy-1-methyl-ethoxy)propan-1-ol;1-(2-hydroxypropoxy)propan-2-ol

> <PUBCHEM_IUPAC_INCHI>
InChI=1S/2C6H14O3/c1-5(7)3-9-4-6(2)8;1-5(3-7)9-6(2)4-8/h2*5-8H,3-4H2,1-2H3

> <PUBCHEM_IUPAC_INCHIKEY>
BPRJQFIHEGORJE-UHFFFAOYSA-N

> <PUBCHEM_EXACT_MASS>
268.18858861

> <PUBCHEM_MOLECULAR_FORMULA>
C12H28O6

> <PUBCHEM_MOLECULAR_WEIGHT>
268.35

> <PUBCHEM_SMILES>
CC(CO)OC(C)CO.CC(COCC(C)O)O

> <PUBCHEM_CONNECTIVITY_SMILES>
CC(CO)OC(C)CO.CC(COCC(C)O)O

> <PUBCHEM_CACTVS_TPSA>
99.4

> <PUBCHEM_MONOISOTOPIC_WEIGHT>
268.18858861

> <PUBCHEM_TOTAL_CHARGE>
0

> <PUBCHEM_HEAVY_ATOM_COUNT>
18

> <PUBCHEM_ATOM_DEF_STEREO_COUNT>
0

> <PUBCHEM_ATOM_UDEF_STEREO_COUNT>
4

> <PUBCHEM_BOND_DEF_STEREO_COUNT>
0

> <PUBCHEM_BOND_UDEF_STEREO_COUNT>
0

> <PUBCHEM_ISOTOPIC_ATOM_COUNT>
0

> <PUBCHEM_COMPONENT_COUNT>
2

> <PUBCHEM_CACTVS_TAUTO_COUNT>
-1

> <PUBCHEM_COORDINATE_TYPE>
1
5
255

> <PUBCHEM_BONDANNOTATIONS>
13  5  3
14  6  3
7  11  3
8  12  3

$$$$
