135408770
  -OEChem-05122608552D

 14 14  0     0  0  0  0  0  0999 V2000
    6.0010    1.3450    0.0000 O   0  0  0  0  0  0  0  0  0  0  0  0
    4.2690    1.3450    0.0000 N   0  0  0  0  0  0  0  0  0  0  0  0
    3.4030   -0.1550    0.0000 N   0  0  0  0  0  0  0  0  0  0  0  0
    5.1350   -0.1550    0.0000 N   0  0  0  0  0  0  0  0  0  0  0  0
    2.5369    1.3450    0.0000 N   0  0  0  0  0  0  0  0  0  0  0  0
    4.2690   -1.6550    0.0000 N   0  0  0  0  0  0  0  0  0  0  0  0
    3.4030    0.8450    0.0000 C   0  0  0  0  0  0  0  0  0  0  0  0
    4.2690   -0.6550    0.0000 C   0  0  0  0  0  0  0  0  0  0  0  0
    5.1350    0.8450    0.0000 C   0  0  0  0  0  0  0  0  0  0  0  0
    4.2690    1.9650    0.0000 H   0  0  0  0  0  0  0  0  0  0  0  0
    2.0000    1.0350    0.0000 H   0  0  0  0  0  0  0  0  0  0  0  0
    2.5369    1.9650    0.0000 H   0  0  0  0  0  0  0  0  0  0  0  0
    4.8059   -1.9650    0.0000 H   0  0  0  0  0  0  0  0  0  0  0  0
    3.7321   -1.9650    0.0000 H   0  0  0  0  0  0  0  0  0  0  0  0
  1  9  2  0  0  0  0
  2  7  1  0  0  0  0
  2  9  1  0  0  0  0
  2 10  1  0  0  0  0
  3  7  2  0  0  0  0
  3  8  1  0  0  0  0
  4  8  2  0  0  0  0
  4  9  1  0  0  0  0
  5  7  1  0  0  0  0
  5 11  1  0  0  0  0
  5 12  1  0  0  0  0
  6  8  1  0  0  0  0
  6 13  1  0  0  0  0
  6 14  1  0  0  0  0
M  END
> <PUBCHEM_COMPOUND_CID>
135408770

> <PUBCHEM_COMPOUND_CANONICALIZED>
1

> <PUBCHEM_CACTVS_COMPLEXITY>
204

> <PUBCHEM_CACTVS_HBOND_ACCEPTOR>
1

> <PUBCHEM_CACTVS_HBOND_DONOR>
3

> <PUBCHEM_CACTVS_ROTATABLE_BOND>
0

> <PUBCHEM_CACTVS_SUBSKEYS>
AAADcYBDoAAAAAAAAAAAAAAAAAAAAAAAAAAgAAAAAAAAAAAAAAAABgAQAAAAAAAAAAABAALAAAAoAAAANAAAAAEAAAABAAAAAACAAAAAAAAAAAAAAQAAAAAAAAAAAAAAAAAAAAAAAAAAAAAAAAAAAAAAAA==

> <PUBCHEM_IUPAC_OPENEYE_NAME>
4,6-diamino-1H-1,3,5-triazin-2-one

> <PUBCHEM_IUPAC_CAS_NAME>
4,6-diamino-1H-1,3,5-triazin-2-one

> <PUBCHEM_IUPAC_NAME_MARKUP>
4,6-diamino-1<I>H</I>-1,3,5-triazin-2-one

> <PUBCHEM_IUPAC_NAME>
4,6-diamino-1H-1,3,5-triazin-2-one

> <PUBCHEM_IUPAC_SYSTEMATIC_NAME>
4,6-bis(azanyl)-1H-1,3,5-triazin-2-one

> <PUBCHEM_IUPAC_TRADITIONAL_NAME>
4,6-diamino-1H-s-triazin-2-one

> <PUBCHEM_IUPAC_INCHI>
InChI=1S/C3H5N5O/c4-1-6-2(5)8-3(9)7-1/h(H5,4,5,6,7,8,9)

> <PUBCHEM_IUPAC_INCHIKEY>
MASBWURJQFFLOO-UHFFFAOYSA-N

> <PUBCHEM_XLOGP3_AA>
-1.8

> <PUBCHEM_EXACT_MASS>
127.04940980

> <PUBCHEM_MOLECULAR_FORMULA>
C3H5N5O

> <PUBCHEM_MOLECULAR_WEIGHT>
127.11

> <PUBCHEM_SMILES>
C1(=NC(=NC(=O)N1)N)N

> <PUBCHEM_CONNECTIVITY_SMILES>
C1(=NC(=NC(=O)N1)N)N

> <PUBCHEM_CACTVS_TPSA>
106

> <PUBCHEM_MONOISOTOPIC_WEIGHT>
127.04940980

> <PUBCHEM_TOTAL_CHARGE>
0

> <PUBCHEM_HEAVY_ATOM_COUNT>
9

> <PUBCHEM_ATOM_DEF_STEREO_COUNT>
0

> <PUBCHEM_ATOM_UDEF_STEREO_COUNT>
0

> <PUBCHEM_BOND_DEF_STEREO_COUNT>
0

> <PUBCHEM_BOND_UDEF_STEREO_COUNT>
0

> <PUBCHEM_ISOTOPIC_ATOM_COUNT>
0

> <PUBCHEM_COMPONENT_COUNT>
1

> <PUBCHEM_CACTVS_TAUTO_COUNT>
-1

> <PUBCHEM_COORDINATE_TYPE>
1
5
255

> <PUBCHEM_BONDANNOTATIONS>
2  7  8
2  9  8
3  7  8
3  8  8
4  8  8
4  9  8

$$$$
