13545497
  -OEChem-05122608482D

 37 36  0     1  0  0  0  0  0999 V2000
    8.0622    0.0950    0.0000 O   0  0  0  0  0  0  0  0  0  0  0  0
    6.3301    1.0950    0.0000 O   0  0  0  0  0  0  0  0  0  0  0  0
    3.7320   -0.4050    0.0000 O   0  0  0  0  0  0  0  0  0  0  0  0
    4.5981    1.0950    0.0000 O   0  0  0  0  0  0  0  0  0  0  0  0
    6.3301    0.0950    0.0000 C   0  0  2  0  0  0  0  0  0  0  0  0
    8.9282   -0.4050    0.0000 C   0  0  0  0  0  0  0  0  0  0  0  0
    5.4641   -0.4050    0.0000 C   0  0  2  0  0  0  0  0  0  0  0  0
    7.1962   -0.4050    0.0000 C   0  0  0  0  0  0  0  0  0  0  0  0
    9.7942   -0.9050    0.0000 C   0  0  0  0  0  0  0  0  0  0  0  0
    9.4282    0.4610    0.0000 C   0  0  0  0  0  0  0  0  0  0  0  0
    8.4282   -1.2710    0.0000 C   0  0  0  0  0  0  0  0  0  0  0  0
    5.4641   -1.4050    0.0000 C   0  0  0  0  0  0  0  0  0  0  0  0
    4.5981    0.0950    0.0000 C   0  0  0  0  0  0  0  0  0  0  0  0
    2.8660    0.0950    0.0000 C   0  0  0  0  0  0  0  0  0  0  0  0
    2.0000   -0.4050    0.0000 C   0  0  0  0  0  0  0  0  0  0  0  0
    6.8671    0.4050    0.0000 H   0  0  0  0  0  0  0  0  0  0  0  0
    6.0010   -0.7150    0.0000 H   0  0  0  0  0  0  0  0  0  0  0  0
    6.7976   -0.8799    0.0000 H   0  0  0  0  0  0  0  0  0  0  0  0
    7.5947   -0.8799    0.0000 H   0  0  0  0  0  0  0  0  0  0  0  0
    9.4842   -1.4419    0.0000 H   0  0  0  0  0  0  0  0  0  0  0  0
   10.3312   -1.2150    0.0000 H   0  0  0  0  0  0  0  0  0  0  0  0
   10.1042   -0.3681    0.0000 H   0  0  0  0  0  0  0  0  0  0  0  0
    9.9651    0.1510    0.0000 H   0  0  0  0  0  0  0  0  0  0  0  0
    9.7382    0.9980    0.0000 H   0  0  0  0  0  0  0  0  0  0  0  0
    8.8913    0.7710    0.0000 H   0  0  0  0  0  0  0  0  0  0  0  0
    7.8913   -0.9610    0.0000 H   0  0  0  0  0  0  0  0  0  0  0  0
    8.1182   -1.8080    0.0000 H   0  0  0  0  0  0  0  0  0  0  0  0
    8.9651   -1.5810    0.0000 H   0  0  0  0  0  0  0  0  0  0  0  0
    4.8441   -1.4050    0.0000 H   0  0  0  0  0  0  0  0  0  0  0  0
    5.4641   -2.0250    0.0000 H   0  0  0  0  0  0  0  0  0  0  0  0
    6.0841   -1.4050    0.0000 H   0  0  0  0  0  0  0  0  0  0  0  0
    6.8671    1.4050    0.0000 H   0  0  0  0  0  0  0  0  0  0  0  0
    3.2646    0.5699    0.0000 H   0  0  0  0  0  0  0  0  0  0  0  0
    2.4675    0.5699    0.0000 H   0  0  0  0  0  0  0  0  0  0  0  0
    1.6900    0.1319    0.0000 H   0  0  0  0  0  0  0  0  0  0  0  0
    1.4631   -0.7150    0.0000 H   0  0  0  0  0  0  0  0  0  0  0  0
    2.3100   -0.9419    0.0000 H   0  0  0  0  0  0  0  0  0  0  0  0
  1  6  1  0  0  0  0
  1  8  1  0  0  0  0
  5  2  1  1  0  0  0
  2 32  1  0  0  0  0
  3 13  1  0  0  0  0
  3 14  1  0  0  0  0
  4 13  2  0  0  0  0
  5  7  1  0  0  0  0
  5  8  1  0  0  0  0
  5 16  1  0  0  0  0
  6  9  1  0  0  0  0
  6 10  1  0  0  0  0
  6 11  1  0  0  0  0
  7 12  1  6  0  0  0
  7 13  1  0  0  0  0
  7 17  1  0  0  0  0
  8 18  1  0  0  0  0
  8 19  1  0  0  0  0
  9 20  1  0  0  0  0
  9 21  1  0  0  0  0
  9 22  1  0  0  0  0
 10 23  1  0  0  0  0
 10 24  1  0  0  0  0
 10 25  1  0  0  0  0
 11 26  1  0  0  0  0
 11 27  1  0  0  0  0
 11 28  1  0  0  0  0
 12 29  1  0  0  0  0
 12 30  1  0  0  0  0
 12 31  1  0  0  0  0
 14 15  1  0  0  0  0
 14 33  1  0  0  0  0
 14 34  1  0  0  0  0
 15 35  1  0  0  0  0
 15 36  1  0  0  0  0
 15 37  1  0  0  0  0
M  END
> <PUBCHEM_COMPOUND_CID>
13545497

> <PUBCHEM_COMPOUND_CANONICALIZED>
1

> <PUBCHEM_CACTVS_COMPLEXITY>
195

> <PUBCHEM_CACTVS_HBOND_ACCEPTOR>
4

> <PUBCHEM_CACTVS_HBOND_DONOR>
1

> <PUBCHEM_CACTVS_ROTATABLE_BOND>
7

> <PUBCHEM_CACTVS_SUBSKEYS>
AAADceBwOAAAAAAAAAAAAAAAAAAAAAAAAAAAAAAAAAAAAAAAAAAAGgAACAAADVSggAICCAAABgAIAACQCAAAAAAAAAAAAAEAAAABEBQAAAACQAAFIAADAABCAAAIAAAAAAAAAAAAAAAAAAAAAAAAAAAAAA==

> <PUBCHEM_IUPAC_OPENEYE_NAME>
ethyl (2S,3R)-4-tert-butoxy-3-hydroxy-2-methyl-butanoate

> <PUBCHEM_IUPAC_CAS_NAME>
(2S,3R)-3-hydroxy-2-methyl-4-[(2-methylpropan-2-yl)oxy]butanoic acid ethyl ester

> <PUBCHEM_IUPAC_NAME_MARKUP>
ethyl (2<I>S</I>,3<I>R</I>)-3-hydroxy-2-methyl-4-[(2-methylpropan-2-yl)oxy]butanoate

> <PUBCHEM_IUPAC_NAME>
ethyl (2S,3R)-3-hydroxy-2-methyl-4-[(2-methylpropan-2-yl)oxy]butanoate

> <PUBCHEM_IUPAC_SYSTEMATIC_NAME>
ethyl (2S,3R)-2-methyl-4-[(2-methylpropan-2-yl)oxy]-3-oxidanyl-butanoate

> <PUBCHEM_IUPAC_TRADITIONAL_NAME>
(2S,3R)-4-tert-butoxy-3-hydroxy-2-methyl-butyric acid ethyl ester

> <PUBCHEM_IUPAC_INCHI>
InChI=1S/C11H22O4/c1-6-14-10(13)8(2)9(12)7-15-11(3,4)5/h8-9,12H,6-7H2,1-5H3/t8-,9-/m0/s1

> <PUBCHEM_IUPAC_INCHIKEY>
ROTHNBAURREORS-IUCAKERBSA-N

> <PUBCHEM_XLOGP3_AA>
1.2

> <PUBCHEM_EXACT_MASS>
218.15180918

> <PUBCHEM_MOLECULAR_FORMULA>
C11H22O4

> <PUBCHEM_MOLECULAR_WEIGHT>
218.29

> <PUBCHEM_SMILES>
CCOC(=O)[C@@H](C)[C@H](COC(C)(C)C)O

> <PUBCHEM_CONNECTIVITY_SMILES>
CCOC(=O)C(C)C(COC(C)(C)C)O

> <PUBCHEM_CACTVS_TPSA>
55.8

> <PUBCHEM_MONOISOTOPIC_WEIGHT>
218.15180918

> <PUBCHEM_TOTAL_CHARGE>
0

> <PUBCHEM_HEAVY_ATOM_COUNT>
15

> <PUBCHEM_ATOM_DEF_STEREO_COUNT>
2

> <PUBCHEM_ATOM_UDEF_STEREO_COUNT>
0

> <PUBCHEM_BOND_DEF_STEREO_COUNT>
0

> <PUBCHEM_BOND_UDEF_STEREO_COUNT>
0

> <PUBCHEM_ISOTOPIC_ATOM_COUNT>
0

> <PUBCHEM_COMPONENT_COUNT>
1

> <PUBCHEM_CACTVS_TAUTO_COUNT>
-1

> <PUBCHEM_COORDINATE_TYPE>
1
5
255

> <PUBCHEM_BONDANNOTATIONS>
5  2  5
7  12  6

$$$$
