135487856
  -OEChem-05122608532D

 95 98  0     1  0  0  0  0  0999 V2000
    7.1962    1.7500    0.0000 O   0  0  0  0  0  0  0  0  0  0  0  0
   15.8564    1.7500    0.0000 O   0  0  0  0  0  0  0  0  0  0  0  0
   10.6603    1.7500    0.0000 O   0  0  0  0  0  0  0  0  0  0  0  0
   14.1244   -1.2500    0.0000 O   0  0  0  0  0  0  0  0  0  0  0  0
   11.5263   -5.7500    0.0000 O   0  0  0  0  0  0  0  0  0  0  0  0
   11.5263    0.2500    0.0000 N   0  0  0  0  0  0  0  0  0  0  0  0
   12.3923   -1.2500    0.0000 N   0  0  0  0  0  0  0  0  0  0  0  0
   10.6603   -1.2500    0.0000 N   0  0  0  0  0  0  0  0  0  0  0  0
    5.4641    1.7500    0.0000 C   0  0  3  0  0  0  0  0  0  0  0  0
   16.7224    3.2500    0.0000 C   0  0  3  0  0  0  0  0  0  0  0  0
    4.5981    1.2500    0.0000 C   0  0  0  0  0  0  0  0  0  0  0  0
   16.7224    4.2500    0.0000 C   0  0  0  0  0  0  0  0  0  0  0  0
    5.4641    2.7500    0.0000 C   0  0  0  0  0  0  0  0  0  0  0  0
   17.5885    2.7500    0.0000 C   0  0  0  0  0  0  0  0  0  0  0  0
    3.7321    1.7500    0.0000 C   0  0  0  0  0  0  0  0  0  0  0  0
   17.5885    4.7500    0.0000 C   0  0  0  0  0  0  0  0  0  0  0  0
    6.3301    1.2500    0.0000 C   0  0  0  0  0  0  0  0  0  0  0  0
   15.8564    2.7500    0.0000 C   0  0  0  0  0  0  0  0  0  0  0  0
    2.8660    1.2500    0.0000 C   0  0  0  0  0  0  0  0  0  0  0  0
   17.5885    5.7500    0.0000 C   0  0  0  0  0  0  0  0  0  0  0  0
    4.5981    3.2500    0.0000 C   0  0  0  0  0  0  0  0  0  0  0  0
   18.4545    3.2500    0.0000 C   0  0  0  0  0  0  0  0  0  0  0  0
    2.0000    1.7500    0.0000 C   0  0  0  0  0  0  0  0  0  0  0  0
   18.4545    6.2500    0.0000 C   0  0  0  0  0  0  0  0  0  0  0  0
    8.0622    1.2500    0.0000 C   0  0  0  0  0  0  0  0  0  0  0  0
   14.9904    1.2500    0.0000 C   0  0  0  0  0  0  0  0  0  0  0  0
    8.9282    1.7500    0.0000 C   0  0  0  0  0  0  0  0  0  0  0  0
   14.9904    0.2500    0.0000 C   0  0  0  0  0  0  0  0  0  0  0  0
    8.0622    0.2500    0.0000 C   0  0  0  0  0  0  0  0  0  0  0  0
   14.1244    1.7500    0.0000 C   0  0  0  0  0  0  0  0  0  0  0  0
    9.7942    0.2500    0.0000 C   0  0  0  0  0  0  0  0  0  0  0  0
   13.2583    0.2500    0.0000 C   0  0  0  0  0  0  0  0  0  0  0  0
    9.7942    1.2500    0.0000 C   0  0  0  0  0  0  0  0  0  0  0  0
   14.1244   -0.2500    0.0000 C   0  0  0  0  0  0  0  0  0  0  0  0
    8.9282   -0.2500    0.0000 C   0  0  0  0  0  0  0  0  0  0  0  0
   13.2583    1.2500    0.0000 C   0  0  0  0  0  0  0  0  0  0  0  0
   10.6603   -0.2500    0.0000 C   0  0  0  0  0  0  0  0  0  0  0  0
   12.3923   -0.2500    0.0000 C   0  0  0  0  0  0  0  0  0  0  0  0
   11.5263   -1.7500    0.0000 C   0  0  0  0  0  0  0  0  0  0  0  0
   11.5263   -2.7500    0.0000 C   0  0  0  0  0  0  0  0  0  0  0  0
   12.3923   -3.2500    0.0000 C   0  0  0  0  0  0  0  0  0  0  0  0
   10.6603   -3.2500    0.0000 C   0  0  0  0  0  0  0  0  0  0  0  0
   12.3923   -4.2500    0.0000 C   0  0  0  0  0  0  0  0  0  0  0  0
   10.6603   -4.2500    0.0000 C   0  0  0  0  0  0  0  0  0  0  0  0
   11.5263   -4.7500    0.0000 C   0  0  0  0  0  0  0  0  0  0  0  0
   10.6603   -6.2500    0.0000 C   0  0  0  0  0  0  0  0  0  0  0  0
    5.4641    1.1300    0.0000 H   0  0  0  0  0  0  0  0  0  0  0  0
   16.1855    3.5600    0.0000 H   0  0  0  0  0  0  0  0  0  0  0  0
    4.1996    0.7751    0.0000 H   0  0  0  0  0  0  0  0  0  0  0  0
    4.9966    0.7751    0.0000 H   0  0  0  0  0  0  0  0  0  0  0  0
   16.5104    4.8326    0.0000 H   0  0  0  0  0  0  0  0  0  0  0  0
   16.1119    4.1423    0.0000 H   0  0  0  0  0  0  0  0  0  0  0  0
    6.0747    2.6423    0.0000 H   0  0  0  0  0  0  0  0  0  0  0  0
    5.6762    3.3326    0.0000 H   0  0  0  0  0  0  0  0  0  0  0  0
   17.1899    2.2751    0.0000 H   0  0  0  0  0  0  0  0  0  0  0  0
   17.9870    2.2751    0.0000 H   0  0  0  0  0  0  0  0  0  0  0  0
    4.1306    2.2250    0.0000 H   0  0  0  0  0  0  0  0  0  0  0  0
    3.3335    2.2250    0.0000 H   0  0  0  0  0  0  0  0  0  0  0  0
   17.8005    4.1674    0.0000 H   0  0  0  0  0  0  0  0  0  0  0  0
   18.1990    4.8577    0.0000 H   0  0  0  0  0  0  0  0  0  0  0  0
    5.9316    0.7751    0.0000 H   0  0  0  0  0  0  0  0  0  0  0  0
    6.7287    0.7751    0.0000 H   0  0  0  0  0  0  0  0  0  0  0  0
   15.6444    3.3326    0.0000 H   0  0  0  0  0  0  0  0  0  0  0  0
   15.2458    2.6423    0.0000 H   0  0  0  0  0  0  0  0  0  0  0  0
    2.4675    0.7751    0.0000 H   0  0  0  0  0  0  0  0  0  0  0  0
    3.2646    0.7751    0.0000 H   0  0  0  0  0  0  0  0  0  0  0  0
   17.3764    6.3326    0.0000 H   0  0  0  0  0  0  0  0  0  0  0  0
   16.9779    5.6423    0.0000 H   0  0  0  0  0  0  0  0  0  0  0  0
    4.9081    3.7869    0.0000 H   0  0  0  0  0  0  0  0  0  0  0  0
    4.0611    3.5600    0.0000 H   0  0  0  0  0  0  0  0  0  0  0  0
    4.2881    2.7131    0.0000 H   0  0  0  0  0  0  0  0  0  0  0  0
   18.7645    2.7131    0.0000 H   0  0  0  0  0  0  0  0  0  0  0  0
   18.9914    3.5600    0.0000 H   0  0  0  0  0  0  0  0  0  0  0  0
   18.1445    3.7869    0.0000 H   0  0  0  0  0  0  0  0  0  0  0  0
    2.3100    2.2869    0.0000 H   0  0  0  0  0  0  0  0  0  0  0  0
    1.4631    2.0600    0.0000 H   0  0  0  0  0  0  0  0  0  0  0  0
    1.6900    1.2131    0.0000 H   0  0  0  0  0  0  0  0  0  0  0  0
   18.7645    5.7131    0.0000 H   0  0  0  0  0  0  0  0  0  0  0  0
   18.9914    6.5600    0.0000 H   0  0  0  0  0  0  0  0  0  0  0  0
   18.1445    6.7869    0.0000 H   0  0  0  0  0  0  0  0  0  0  0  0
    8.9282    2.3700    0.0000 H   0  0  0  0  0  0  0  0  0  0  0  0
   15.5273   -0.0600    0.0000 H   0  0  0  0  0  0  0  0  0  0  0  0
    7.5252   -0.0600    0.0000 H   0  0  0  0  0  0  0  0  0  0  0  0
   14.1244    2.3700    0.0000 H   0  0  0  0  0  0  0  0  0  0  0  0
    8.9282   -0.8700    0.0000 H   0  0  0  0  0  0  0  0  0  0  0  0
   12.7214    1.5600    0.0000 H   0  0  0  0  0  0  0  0  0  0  0  0
   10.6603    2.3700    0.0000 H   0  0  0  0  0  0  0  0  0  0  0  0
   14.6613   -1.5600    0.0000 H   0  0  0  0  0  0  0  0  0  0  0  0
   12.9292   -2.9400    0.0000 H   0  0  0  0  0  0  0  0  0  0  0  0
   10.1233   -2.9400    0.0000 H   0  0  0  0  0  0  0  0  0  0  0  0
   12.9292   -4.5600    0.0000 H   0  0  0  0  0  0  0  0  0  0  0  0
   10.1233   -4.5600    0.0000 H   0  0  0  0  0  0  0  0  0  0  0  0
   10.3503   -5.7131    0.0000 H   0  0  0  0  0  0  0  0  0  0  0  0
   10.1233   -6.5600    0.0000 H   0  0  0  0  0  0  0  0  0  0  0  0
   10.9703   -6.7869    0.0000 H   0  0  0  0  0  0  0  0  0  0  0  0
  1 17  1  0  0  0  0
  1 25  1  0  0  0  0
  2 18  1  0  0  0  0
  2 26  1  0  0  0  0
  3 33  1  0  0  0  0
  3 87  1  0  0  0  0
  4 34  1  0  0  0  0
  4 88  1  0  0  0  0
  5 45  1  0  0  0  0
  5 46  1  0  0  0  0
  6 37  2  0  0  0  0
  6 38  1  0  0  0  0
  7 38  2  0  0  0  0
  7 39  1  0  0  0  0
  8 37  1  0  0  0  0
  8 39  2  0  0  0  0
  9 11  1  0  0  0  0
  9 13  1  0  0  0  0
  9 17  1  0  0  0  0
  9 47  1  0  0  0  0
 10 12  1  0  0  0  0
 10 14  1  0  0  0  0
 10 18  1  0  0  0  0
 10 48  1  0  0  0  0
 11 15  1  0  0  0  0
 11 49  1  0  0  0  0
 11 50  1  0  0  0  0
 12 16  1  0  0  0  0
 12 51  1  0  0  0  0
 12 52  1  0  0  0  0
 13 21  1  0  0  0  0
 13 53  1  0  0  0  0
 13 54  1  0  0  0  0
 14 22  1  0  0  0  0
 14 55  1  0  0  0  0
 14 56  1  0  0  0  0
 15 19  1  0  0  0  0
 15 57  1  0  0  0  0
 15 58  1  0  0  0  0
 16 20  1  0  0  0  0
 16 59  1  0  0  0  0
 16 60  1  0  0  0  0
 17 61  1  0  0  0  0
 17 62  1  0  0  0  0
 18 63  1  0  0  0  0
 18 64  1  0  0  0  0
 19 23  1  0  0  0  0
 19 65  1  0  0  0  0
 19 66  1  0  0  0  0
 20 24  1  0  0  0  0
 20 67  1  0  0  0  0
 20 68  1  0  0  0  0
 21 69  1  0  0  0  0
 21 70  1  0  0  0  0
 21 71  1  0  0  0  0
 22 72  1  0  0  0  0
 22 73  1  0  0  0  0
 22 74  1  0  0  0  0
 23 75  1  0  0  0  0
 23 76  1  0  0  0  0
 23 77  1  0  0  0  0
 24 78  1  0  0  0  0
 24 79  1  0  0  0  0
 24 80  1  0  0  0  0
 25 27  2  0  0  0  0
 25 29  1  0  0  0  0
 26 28  2  0  0  0  0
 26 30  1  0  0  0  0
 27 33  1  0  0  0  0
 27 81  1  0  0  0  0
 28 34  1  0  0  0  0
 28 82  1  0  0  0  0
 29 35  2  0  0  0  0
 29 83  1  0  0  0  0
 30 36  2  0  0  0  0
 30 84  1  0  0  0  0
 31 33  2  0  0  0  0
 31 35  1  0  0  0  0
 31 37  1  0  0  0  0
 32 34  2  0  0  0  0
 32 36  1  0  0  0  0
 32 38  1  0  0  0  0
 35 85  1  0  0  0  0
 36 86  1  0  0  0  0
 39 40  1  0  0  0  0
 40 41  2  0  0  0  0
 40 42  1  0  0  0  0
 41 43  1  0  0  0  0
 41 89  1  0  0  0  0
 42 44  2  0  0  0  0
 42 90  1  0  0  0  0
 43 45  2  0  0  0  0
 43 91  1  0  0  0  0
 44 45  1  0  0  0  0
 44 92  1  0  0  0  0
 46 93  1  0  0  0  0
 46 94  1  0  0  0  0
 46 95  1  0  0  0  0
M  END
> <PUBCHEM_COMPOUND_CID>
135487856

> <PUBCHEM_COMPOUND_CANONICALIZED>
1

> <PUBCHEM_CACTVS_COMPLEXITY>
761

> <PUBCHEM_CACTVS_HBOND_ACCEPTOR>
8

> <PUBCHEM_CACTVS_HBOND_DONOR>
2

> <PUBCHEM_CACTVS_ROTATABLE_BOND>
18

> <PUBCHEM_CACTVS_SUBSKEYS>
AAADcfB/OAAAAAAAAAAAAAAAAAAAAAAAAAA8YMEAAAAAAAAB1AAAHgAACAAADQShmwIzFoYIFgCgAiJiJACCiAkgIKAJiCAmDJiML6KGuRuGeCjvwBeIuAeQ8C4OIAAACAAIAABAAAAQABAAAAAAAAAAAA==

> <PUBCHEM_IUPAC_OPENEYE_NAME>
5-(2-ethylhexoxy)-2-[4-[4-(2-ethylhexoxy)-2-hydroxy-phenyl]-6-(4-methoxyphenyl)-1,3,5-triazin-2-yl]phenol

> <PUBCHEM_IUPAC_CAS_NAME>
5-(2-ethylhexoxy)-2-[4-[4-(2-ethylhexoxy)-2-hydroxyphenyl]-6-(4-methoxyphenyl)-1,3,5-triazin-2-yl]phenol

> <PUBCHEM_IUPAC_NAME_MARKUP>
5-(2-ethylhexoxy)-2-[4-[4-(2-ethylhexoxy)-2-hydroxyphenyl]-6-(4-methoxyphenyl)-1,3,5-triazin-2-yl]phenol

> <PUBCHEM_IUPAC_NAME>
5-(2-ethylhexoxy)-2-[4-[4-(2-ethylhexoxy)-2-hydroxyphenyl]-6-(4-methoxyphenyl)-1,3,5-triazin-2-yl]phenol

> <PUBCHEM_IUPAC_SYSTEMATIC_NAME>
5-(2-ethylhexoxy)-2-[4-[4-(2-ethylhexoxy)-2-oxidanyl-phenyl]-6-(4-methoxyphenyl)-1,3,5-triazin-2-yl]phenol

> <PUBCHEM_IUPAC_TRADITIONAL_NAME>
5-(2-ethylhexoxy)-2-[4-[4-(2-ethylhexoxy)-2-hydroxy-phenyl]-6-(4-methoxyphenyl)-s-triazin-2-yl]phenol

> <PUBCHEM_IUPAC_INCHI>
InChI=1S/C38H49N3O5/c1-6-10-12-26(8-3)24-45-30-18-20-32(34(42)22-30)37-39-36(28-14-16-29(44-5)17-15-28)40-38(41-37)33-21-19-31(23-35(33)43)46-25-27(9-4)13-11-7-2/h14-23,26-27,42-43H,6-13,24-25H2,1-5H3

> <PUBCHEM_IUPAC_INCHIKEY>
XVAMCHGMPYWHNL-UHFFFAOYSA-N

> <PUBCHEM_XLOGP3_AA>
10.4

> <PUBCHEM_EXACT_MASS>
627.36722167

> <PUBCHEM_MOLECULAR_FORMULA>
C38H49N3O5

> <PUBCHEM_MOLECULAR_WEIGHT>
627.8

> <PUBCHEM_SMILES>
CCCCC(CC)COC1=CC(=C(C=C1)C2=NC(=NC(=N2)C3=CC=C(C=C3)OC)C4=C(C=C(C=C4)OCC(CC)CCCC)O)O

> <PUBCHEM_CONNECTIVITY_SMILES>
CCCCC(CC)COC1=CC(=C(C=C1)C2=NC(=NC(=N2)C3=CC=C(C=C3)OC)C4=C(C=C(C=C4)OCC(CC)CCCC)O)O

> <PUBCHEM_CACTVS_TPSA>
107

> <PUBCHEM_MONOISOTOPIC_WEIGHT>
627.36722167

> <PUBCHEM_TOTAL_CHARGE>
0

> <PUBCHEM_HEAVY_ATOM_COUNT>
46

> <PUBCHEM_ATOM_DEF_STEREO_COUNT>
0

> <PUBCHEM_ATOM_UDEF_STEREO_COUNT>
2

> <PUBCHEM_BOND_DEF_STEREO_COUNT>
0

> <PUBCHEM_BOND_UDEF_STEREO_COUNT>
0

> <PUBCHEM_ISOTOPIC_ATOM_COUNT>
0

> <PUBCHEM_COMPONENT_COUNT>
1

> <PUBCHEM_CACTVS_TAUTO_COUNT>
-1

> <PUBCHEM_COORDINATE_TYPE>
1
5
255

> <PUBCHEM_BONDANNOTATIONS>
10  14  3
25  27  8
25  29  8
26  28  8
26  30  8
27  33  8
28  34  8
29  35  8
30  36  8
31  33  8
31  35  8
32  34  8
32  36  8
40  41  8
40  42  8
41  43  8
42  44  8
43  45  8
44  45  8
6  37  8
6  38  8
7  38  8
7  39  8
8  37  8
8  39  8
9  13  3

$$$$
