135565346
  -OEChem-08032615132D

 38 39  0     0  0  0  0  0  0999 V2000
    5.4641   -3.7673    0.0000 Cl  0  0  0  0  0  0  0  0  0  0  0  0
    3.7321   -0.7673    0.0000 S   0  0  0  0  0  0  0  0  0  0  0  0
    2.0000   -0.7673    0.0000 Na  0  3  0  0  0  0  0  0  0  0  0  0
    4.5981    1.7327    0.0000 O   0  0  0  0  0  0  0  0  0  0  0  0
    2.8660   -0.2673    0.0000 O   0  5  0  0  0  0  0  0  0  0  0  0
    3.2321   -1.6334    0.0000 O   0  0  0  0  0  0  0  0  0  0  0  0
    4.2321    0.0987    0.0000 O   0  0  0  0  0  0  0  0  0  0  0  0
    5.4641    0.2327    0.0000 N   0  0  0  0  0  0  0  0  0  0  0  0
    6.3301    0.7327    0.0000 N   0  0  0  0  0  0  0  0  0  0  0  0
    7.1962    2.2327    0.0000 C   0  0  0  0  0  0  0  0  0  0  0  0
    4.5981   -1.2673    0.0000 C   0  0  0  0  0  0  0  0  0  0  0  0
    7.1962    3.2327    0.0000 C   0  0  0  0  0  0  0  0  0  0  0  0
    5.4641   -0.7673    0.0000 C   0  0  0  0  0  0  0  0  0  0  0  0
    6.3301    1.7327    0.0000 C   0  0  0  0  0  0  0  0  0  0  0  0
    6.3301   -2.2673    0.0000 C   0  0  0  0  0  0  0  0  0  0  0  0
    6.3301   -1.2673    0.0000 C   0  0  0  0  0  0  0  0  0  0  0  0
    4.5981   -2.2673    0.0000 C   0  0  0  0  0  0  0  0  0  0  0  0
    5.4641   -2.7673    0.0000 C   0  0  0  0  0  0  0  0  0  0  0  0
    5.4641    2.2327    0.0000 C   0  0  0  0  0  0  0  0  0  0  0  0
    6.3301    3.7327    0.0000 C   0  0  0  0  0  0  0  0  0  0  0  0
    8.0901    1.6980    0.0000 C   0  0  0  0  0  0  0  0  0  0  0  0
    8.0901    3.7673    0.0000 C   0  0  0  0  0  0  0  0  0  0  0  0
    5.4641    3.2327    0.0000 C   0  0  0  0  0  0  0  0  0  0  0  0
    7.1962   -2.7673    0.0000 C   0  0  0  0  0  0  0  0  0  0  0  0
    8.9962    2.2119    0.0000 C   0  0  0  0  0  0  0  0  0  0  0  0
    8.9962    3.2535    0.0000 C   0  0  0  0  0  0  0  0  0  0  0  0
    6.8671   -0.9573    0.0000 H   0  0  0  0  0  0  0  0  0  0  0  0
    4.0611   -2.5773    0.0000 H   0  0  0  0  0  0  0  0  0  0  0  0
    6.3301    4.3527    0.0000 H   0  0  0  0  0  0  0  0  0  0  0  0
    8.0829    1.0781    0.0000 H   0  0  0  0  0  0  0  0  0  0  0  0
    8.0829    4.3873    0.0000 H   0  0  0  0  0  0  0  0  0  0  0  0
    4.9272    3.5427    0.0000 H   0  0  0  0  0  0  0  0  0  0  0  0
    6.8862   -3.3043    0.0000 H   0  0  0  0  0  0  0  0  0  0  0  0
    7.7331   -3.0773    0.0000 H   0  0  0  0  0  0  0  0  0  0  0  0
    7.5062   -2.2304    0.0000 H   0  0  0  0  0  0  0  0  0  0  0  0
    9.5319    1.8998    0.0000 H   0  0  0  0  0  0  0  0  0  0  0  0
    9.5319    3.5656    0.0000 H   0  0  0  0  0  0  0  0  0  0  0  0
    4.0611    2.0427    0.0000 H   0  0  0  0  0  0  0  0  0  0  0  0
  1 18  1  0  0  0  0
  2  5  1  0  0  0  0
  2  6  2  0  0  0  0
  2  7  2  0  0  0  0
  2 11  1  0  0  0  0
  4 19  1  0  0  0  0
  4 38  1  0  0  0  0
  8  9  2  0  0  0  0
  8 13  1  0  0  0  0
  9 14  1  0  0  0  0
 10 12  1  0  0  0  0
 10 14  1  0  0  0  0
 10 21  2  0  0  0  0
 11 13  2  0  0  0  0
 11 17  1  0  0  0  0
 12 20  1  0  0  0  0
 12 22  2  0  0  0  0
 13 16  1  0  0  0  0
 14 19  2  0  0  0  0
 15 16  2  0  0  0  0
 15 18  1  0  0  0  0
 15 24  1  0  0  0  0
 16 27  1  0  0  0  0
 17 18  2  0  0  0  0
 17 28  1  0  0  0  0
 19 23  1  0  0  0  0
 20 23  2  0  0  0  0
 20 29  1  0  0  0  0
 21 25  1  0  0  0  0
 21 30  1  0  0  0  0
 22 26  1  0  0  0  0
 22 31  1  0  0  0  0
 23 32  1  0  0  0  0
 24 33  1  0  0  0  0
 24 34  1  0  0  0  0
 24 35  1  0  0  0  0
 25 26  2  0  0  0  0
 25 36  1  0  0  0  0
 26 37  1  0  0  0  0
M  CHG  2   3   1   5  -1
M  END
> <PUBCHEM_COMPOUND_CID>
135565346

> <PUBCHEM_COMPOUND_CANONICALIZED>
1

> <PUBCHEM_CACTVS_COMPLEXITY>
600

> <PUBCHEM_CACTVS_HBOND_ACCEPTOR>
6

> <PUBCHEM_CACTVS_HBOND_DONOR>
1

> <PUBCHEM_CACTVS_ROTATABLE_BOND>
3

> <PUBCHEM_CACTVS_SUBSKEYS>
AAADccB7OCBEAAAAAAAAAAAAAAAAAAAAAAAwYMAAAAAAAADBVAAAHgYICAAADA6B2CAyx8AAAgKCAiRCQHDCAEAgJwAIiBwHbogKJiKTk5OAcABkwBEI2AeQwLAOsABBQBATEQBgAIKAICYiAAAAAAAAAA==

> <PUBCHEM_IUPAC_OPENEYE_NAME>
sodium 5-chloro-2-[(2-hydroxy-1-naphthyl)azo]-4-methyl-benzenesulfonate

> <PUBCHEM_IUPAC_CAS_NAME>
sodium 5-chloro-2-[(2-hydroxy-1-naphthalenyl)azo]-4-methylbenzenesulfonate

> <PUBCHEM_IUPAC_NAME_MARKUP>
sodium 5-chloro-2-[(2-hydroxynaphthalen-1-yl)diazenyl]-4-methylbenzenesulfonate

> <PUBCHEM_IUPAC_NAME>
sodium 5-chloro-2-[(2-hydroxynaphthalen-1-yl)diazenyl]-4-methylbenzenesulfonate

> <PUBCHEM_IUPAC_SYSTEMATIC_NAME>
sodium 5-chloranyl-4-methyl-2-[(2-oxidanylnaphthalen-1-yl)diazenyl]benzenesulfonate

> <PUBCHEM_IUPAC_TRADITIONAL_NAME>
sodium 5-chloro-2-[(2-hydroxy-1-naphthyl)azo]-4-methyl-besylate

> <PUBCHEM_IUPAC_INCHI>
InChI=1S/C17H13ClN2O4S.Na/c1-10-8-14(16(9-13(10)18)25(22,23)24)19-20-17-12-5-3-2-4-11(12)6-7-15(17)21;/h2-9,21H,1H3,(H,22,23,24);/q;+1/p-1

> <PUBCHEM_IUPAC_INCHIKEY>
LLELVHKMCSBMCX-UHFFFAOYSA-M

> <PUBCHEM_EXACT_MASS>
398.0104000

> <PUBCHEM_MOLECULAR_FORMULA>
C17H12ClN2NaO4S

> <PUBCHEM_MOLECULAR_WEIGHT>
398.8

> <PUBCHEM_SMILES>
CC1=CC(=C(C=C1Cl)S(=O)(=O)[O-])N=NC2=C(C=CC3=CC=CC=C32)O.[Na+]

> <PUBCHEM_CONNECTIVITY_SMILES>
CC1=CC(=C(C=C1Cl)S(=O)(=O)[O-])N=NC2=C(C=CC3=CC=CC=C32)O.[Na+]

> <PUBCHEM_CACTVS_TPSA>
111

> <PUBCHEM_MONOISOTOPIC_WEIGHT>
398.0104000

> <PUBCHEM_TOTAL_CHARGE>
0

> <PUBCHEM_HEAVY_ATOM_COUNT>
26

> <PUBCHEM_ATOM_DEF_STEREO_COUNT>
0

> <PUBCHEM_ATOM_UDEF_STEREO_COUNT>
0

> <PUBCHEM_BOND_DEF_STEREO_COUNT>
0

> <PUBCHEM_BOND_UDEF_STEREO_COUNT>
0

> <PUBCHEM_ISOTOPIC_ATOM_COUNT>
0

> <PUBCHEM_COMPONENT_COUNT>
2

> <PUBCHEM_CACTVS_TAUTO_COUNT>
-1

> <PUBCHEM_NONSTANDARDBOND>
3  5  7

> <PUBCHEM_COORDINATE_TYPE>
1
5
255

> <PUBCHEM_BONDANNOTATIONS>
10  12  8
10  14  8
10  21  8
11  13  8
11  17  8
12  20  8
12  22  8
13  16  8
14  19  8
15  16  8
15  18  8
17  18  8
19  23  8
20  23  8
21  25  8
22  26  8
25  26  8

$$$$
