136590
  -OEChem-05122608162D

 15 16  0     0  0  0  0  0  0999 V2000
    2.8090   -0.3364    0.0000 C   0  0  0  0  0  0  0  0  0  0  0  0
    3.3090   -1.2024    0.0000 C   0  0  0  0  0  0  0  0  0  0  0  0
    2.3090   -1.2024    0.0000 C   0  0  0  0  0  0  0  0  0  0  0  0
    2.0000    0.2514    0.0000 C   0  0  0  0  0  0  0  0  0  0  0  0
    3.6180    0.2514    0.0000 C   0  0  0  0  0  0  0  0  0  0  0  0
    2.3090    1.2024    0.0000 C   0  0  0  0  0  0  0  0  0  0  0  0
    3.3090    1.2024    0.0000 C   0  0  0  0  0  0  0  0  0  0  0  0
    3.4167   -1.8130    0.0000 H   0  0  0  0  0  0  0  0  0  0  0  0
    3.8916   -0.9904    0.0000 H   0  0  0  0  0  0  0  0  0  0  0  0
    1.7264   -0.9904    0.0000 H   0  0  0  0  0  0  0  0  0  0  0  0
    2.2014   -1.8130    0.0000 H   0  0  0  0  0  0  0  0  0  0  0  0
    1.4103    0.0598    0.0000 H   0  0  0  0  0  0  0  0  0  0  0  0
    4.2077    0.0598    0.0000 H   0  0  0  0  0  0  0  0  0  0  0  0
    1.9446    1.7040    0.0000 H   0  0  0  0  0  0  0  0  0  0  0  0
    3.6734    1.7040    0.0000 H   0  0  0  0  0  0  0  0  0  0  0  0
  1  2  1  0  0  0  0
  1  3  1  0  0  0  0
  1  4  1  0  0  0  0
  1  5  1  0  0  0  0
  2  3  1  0  0  0  0
  2  8  1  0  0  0  0
  2  9  1  0  0  0  0
  3 10  1  0  0  0  0
  3 11  1  0  0  0  0
  4  6  2  0  0  0  0
  4 12  1  0  0  0  0
  5  7  2  0  0  0  0
  5 13  1  0  0  0  0
  6  7  1  0  0  0  0
  6 14  1  0  0  0  0
  7 15  1  0  0  0  0
M  END
> <PUBCHEM_COMPOUND_CID>
136590

> <PUBCHEM_COMPOUND_CANONICALIZED>
1

> <PUBCHEM_CACTVS_COMPLEXITY>
122

> <PUBCHEM_CACTVS_HBOND_ACCEPTOR>
0

> <PUBCHEM_CACTVS_HBOND_DONOR>
0

> <PUBCHEM_CACTVS_ROTATABLE_BOND>
0

> <PUBCHEM_CACTVS_SUBSKEYS>
AAADccBgAAAAAAAAAAAAAAAAGAAAAQAAAAAAAAAAAAAAAAAAAAAAGAAAAAAADgCAAAAAAAAAAACAACBCAAAAAAAgAAAICAAAAAgIAAAAAQAAAAAAgAAIgAIAAAAIAAAAAAAAAAAAAAAAAAAAAAAAAAAAAA==

> <PUBCHEM_IUPAC_OPENEYE_NAME>
spiro[2.4]hepta-4,6-diene

> <PUBCHEM_IUPAC_CAS_NAME>
spiro[2.4]hepta-4,6-diene

> <PUBCHEM_IUPAC_NAME_MARKUP>
spiro[2.4]hepta-4,6-diene

> <PUBCHEM_IUPAC_NAME>
spiro[2.4]hepta-4,6-diene

> <PUBCHEM_IUPAC_SYSTEMATIC_NAME>
spiro[2.4]hepta-4,6-diene

> <PUBCHEM_IUPAC_TRADITIONAL_NAME>
spiro[2.4]hepta-4,6-diene

> <PUBCHEM_IUPAC_INCHI>
InChI=1S/C7H8/c1-2-4-7(3-1)5-6-7/h1-4H,5-6H2

> <PUBCHEM_IUPAC_INCHIKEY>
KPDOKSJMJMDRQA-UHFFFAOYSA-N

> <PUBCHEM_XLOGP3_AA>
2.5

> <PUBCHEM_EXACT_MASS>
92.062600255

> <PUBCHEM_MOLECULAR_FORMULA>
C7H8

> <PUBCHEM_MOLECULAR_WEIGHT>
92.14

> <PUBCHEM_SMILES>
C1CC12C=CC=C2

> <PUBCHEM_CONNECTIVITY_SMILES>
C1CC12C=CC=C2

> <PUBCHEM_CACTVS_TPSA>
0

> <PUBCHEM_MONOISOTOPIC_WEIGHT>
92.062600255

> <PUBCHEM_TOTAL_CHARGE>
0

> <PUBCHEM_HEAVY_ATOM_COUNT>
7

> <PUBCHEM_ATOM_DEF_STEREO_COUNT>
0

> <PUBCHEM_ATOM_UDEF_STEREO_COUNT>
0

> <PUBCHEM_BOND_DEF_STEREO_COUNT>
0

> <PUBCHEM_BOND_UDEF_STEREO_COUNT>
0

> <PUBCHEM_ISOTOPIC_ATOM_COUNT>
0

> <PUBCHEM_COMPONENT_COUNT>
1

> <PUBCHEM_CACTVS_TAUTO_COUNT>
-1

> <PUBCHEM_COORDINATE_TYPE>
1
5
255

$$$$
