138158
  -OEChem-08032615242D

 24 25  0     1  0  0  0  0  0999 V2000
    4.3211    1.7498    0.0000 O   0  0  0  0  0  0  0  0  0  0  0  0
    4.6783    0.0550    0.0000 C   0  0  3  0  0  0  0  0  0  0  0  0
    5.2619   -0.7498    0.0000 C   0  0  0  0  0  0  0  0  0  0  0  0
    4.6783   -1.5545    0.0000 C   0  0  0  0  0  0  0  0  0  0  0  0
    3.7321   -0.2498    0.0000 C   0  0  0  0  0  0  0  0  0  0  0  0
    3.7321   -1.2498    0.0000 C   0  0  0  0  0  0  0  0  0  0  0  0
    4.9889    1.0055    0.0000 C   0  0  0  0  0  0  0  0  0  0  0  0
    2.8660    0.2502    0.0000 C   0  0  0  0  0  0  0  0  0  0  0  0
    2.8660   -1.7498    0.0000 C   0  0  0  0  0  0  0  0  0  0  0  0
    2.0000   -0.2498    0.0000 C   0  0  0  0  0  0  0  0  0  0  0  0
    2.0000   -1.2498    0.0000 C   0  0  0  0  0  0  0  0  0  0  0  0
    5.9674    1.2117    0.0000 C   0  0  0  0  0  0  0  0  0  0  0  0
    5.2908    0.1512    0.0000 H   0  0  0  0  0  0  0  0  0  0  0  0
    5.7228   -1.1645    0.0000 H   0  0  0  0  0  0  0  0  0  0  0  0
    5.7228   -0.3350    0.0000 H   0  0  0  0  0  0  0  0  0  0  0  0
    4.4272   -2.1214    0.0000 H   0  0  0  0  0  0  0  0  0  0  0  0
    5.2157   -1.8637    0.0000 H   0  0  0  0  0  0  0  0  0  0  0  0
    2.8660    0.8702    0.0000 H   0  0  0  0  0  0  0  0  0  0  0  0
    2.8660   -2.3698    0.0000 H   0  0  0  0  0  0  0  0  0  0  0  0
    1.4631    0.0602    0.0000 H   0  0  0  0  0  0  0  0  0  0  0  0
    1.4631   -1.5598    0.0000 H   0  0  0  0  0  0  0  0  0  0  0  0
    6.0953    0.6050    0.0000 H   0  0  0  0  0  0  0  0  0  0  0  0
    6.5741    1.3396    0.0000 H   0  0  0  0  0  0  0  0  0  0  0  0
    5.8396    1.8184    0.0000 H   0  0  0  0  0  0  0  0  0  0  0  0
  1  7  2  0  0  0  0
  2  3  1  0  0  0  0
  2  5  1  0  0  0  0
  2  7  1  0  0  0  0
  2 13  1  0  0  0  0
  3  4  1  0  0  0  0
  3 14  1  0  0  0  0
  3 15  1  0  0  0  0
  4  6  1  0  0  0  0
  4 16  1  0  0  0  0
  4 17  1  0  0  0  0
  5  6  1  0  0  0  0
  5  8  2  0  0  0  0
  6  9  2  0  0  0  0
  7 12  1  0  0  0  0
  8 10  1  0  0  0  0
  8 18  1  0  0  0  0
  9 11  1  0  0  0  0
  9 19  1  0  0  0  0
 10 11  2  0  0  0  0
 10 20  1  0  0  0  0
 11 21  1  0  0  0  0
 12 22  1  0  0  0  0
 12 23  1  0  0  0  0
 12 24  1  0  0  0  0
M  END
> <PUBCHEM_COMPOUND_CID>
138158

> <PUBCHEM_COMPOUND_CANONICALIZED>
1

> <PUBCHEM_CACTVS_COMPLEXITY>
185

> <PUBCHEM_CACTVS_HBOND_ACCEPTOR>
1

> <PUBCHEM_CACTVS_HBOND_DONOR>
0

> <PUBCHEM_CACTVS_ROTATABLE_BOND>
1

> <PUBCHEM_CACTVS_SUBSKEYS>
AAADccBwIAAAAAAAAAAAAAAAAAAAAYAAAAAwAAAAAAAAAGABAAAAGgAAAAAADQSAmAAyAIAAAACIAqBSAAACAAAgAAAIiAEAAIgIIDKAFRCAIAAggAAIiAcIiMCOgAAAAAAQAAAAAAAAACAAAQAACAAAAA==

> <PUBCHEM_IUPAC_OPENEYE_NAME>
1-indan-1-ylethanone

> <PUBCHEM_IUPAC_CAS_NAME>
1-(2,3-dihydro-1H-inden-1-yl)ethanone

> <PUBCHEM_IUPAC_NAME_MARKUP>
1-(2,3-dihydro-1<I>H</I>-inden-1-yl)ethanone

> <PUBCHEM_IUPAC_NAME>
1-(2,3-dihydro-1H-inden-1-yl)ethanone

> <PUBCHEM_IUPAC_SYSTEMATIC_NAME>
1-(2,3-dihydro-1H-inden-1-yl)ethanone

> <PUBCHEM_IUPAC_TRADITIONAL_NAME>
1-indan-1-ylethanone

> <PUBCHEM_IUPAC_INCHI>
InChI=1S/C11H12O/c1-8(12)10-7-6-9-4-2-3-5-11(9)10/h2-5,10H,6-7H2,1H3

> <PUBCHEM_IUPAC_INCHIKEY>
ZDDDIYOBAOJYAZ-UHFFFAOYSA-N

> <PUBCHEM_XLOGP3_AA>
2

> <PUBCHEM_EXACT_MASS>
160.088815002

> <PUBCHEM_MOLECULAR_FORMULA>
C11H12O

> <PUBCHEM_MOLECULAR_WEIGHT>
160.21

> <PUBCHEM_SMILES>
CC(=O)C1CCC2=CC=CC=C12

> <PUBCHEM_CONNECTIVITY_SMILES>
CC(=O)C1CCC2=CC=CC=C12

> <PUBCHEM_CACTVS_TPSA>
17.1

> <PUBCHEM_MONOISOTOPIC_WEIGHT>
160.088815002

> <PUBCHEM_TOTAL_CHARGE>
0

> <PUBCHEM_HEAVY_ATOM_COUNT>
12

> <PUBCHEM_ATOM_DEF_STEREO_COUNT>
0

> <PUBCHEM_ATOM_UDEF_STEREO_COUNT>
1

> <PUBCHEM_BOND_DEF_STEREO_COUNT>
0

> <PUBCHEM_BOND_UDEF_STEREO_COUNT>
0

> <PUBCHEM_ISOTOPIC_ATOM_COUNT>
0

> <PUBCHEM_COMPONENT_COUNT>
1

> <PUBCHEM_CACTVS_TAUTO_COUNT>
-1

> <PUBCHEM_COORDINATE_TYPE>
1
5
255

> <PUBCHEM_BONDANNOTATIONS>
10  11  8
2  7  3
5  6  8
5  8  8
6  9  8
8  10  8
9  11  8

$$$$
