138701
  -OEChem-05122609582D

 28 29  0     1  0  0  0  0  0999 V2000
    4.6964   -0.4913    0.0000 C   0  0  3  0  0  0  0  0  0  0  0  0
    4.9552    0.4746    0.0000 C   0  0  3  0  0  0  0  0  0  0  0  0
    2.9816   -0.1436    0.0000 C   0  0  0  0  0  0  0  0  0  0  0  0
    4.2186    1.4572    0.0000 C   0  0  0  0  0  0  0  0  0  0  0  0
    3.3237   -1.0833    0.0000 C   0  0  0  0  0  0  0  0  0  0  0  0
    6.0953   -1.0001    0.0000 C   0  0  0  0  0  0  0  0  0  0  0  0
    6.3541   -0.0342    0.0000 C   0  0  0  0  0  0  0  0  0  0  0  0
    4.4375   -1.4572    0.0000 C   0  0  0  0  0  0  0  0  0  0  0  0
    2.0000   -0.3344    0.0000 C   0  0  0  0  0  0  0  0  0  0  0  0
    2.4968    0.7310    0.0000 C   0  0  0  0  0  0  0  0  0  0  0  0
    4.9411   -0.1452    0.0000 H   0  0  0  0  0  0  0  0  0  0  0  0
    4.5364    1.9896    0.0000 H   0  0  0  0  0  0  0  0  0  0  0  0
    3.6054    1.5492    0.0000 H   0  0  0  0  0  0  0  0  0  0  0  0
    2.7453   -1.3066    0.0000 H   0  0  0  0  0  0  0  0  0  0  0  0
    3.5581   -1.6573    0.0000 H   0  0  0  0  0  0  0  0  0  0  0  0
    5.9004   -1.5887    0.0000 H   0  0  0  0  0  0  0  0  0  0  0  0
    6.6893   -1.1779    0.0000 H   0  0  0  0  0  0  0  0  0  0  0  0
    6.9481   -0.2120    0.0000 H   0  0  0  0  0  0  0  0  0  0  0  0
    6.5490    0.5544    0.0000 H   0  0  0  0  0  0  0  0  0  0  0  0
    3.8387   -1.2968    0.0000 H   0  0  0  0  0  0  0  0  0  0  0  0
    4.2771   -2.0561    0.0000 H   0  0  0  0  0  0  0  0  0  0  0  0
    5.0364   -1.6177    0.0000 H   0  0  0  0  0  0  0  0  0  0  0  0
    1.8817    0.2742    0.0000 H   0  0  0  0  0  0  0  0  0  0  0  0
    1.3914   -0.4527    0.0000 H   0  0  0  0  0  0  0  0  0  0  0  0
    2.1183   -0.9431    0.0000 H   0  0  0  0  0  0  0  0  0  0  0  0
    3.0391    1.0316    0.0000 H   0  0  0  0  0  0  0  0  0  0  0  0
    2.1962    1.2733    0.0000 H   0  0  0  0  0  0  0  0  0  0  0  0
    1.9546    0.4304    0.0000 H   0  0  0  0  0  0  0  0  0  0  0  0
  1  4  1  0  0  0  0
  1  5  1  0  0  0  0
  1  6  1  0  0  0  0
  1  8  1  0  0  0  0
  2  3  1  0  0  0  0
  2  4  1  0  0  0  0
  2  7  1  0  0  0  0
  2 11  1  0  0  0  0
  3  5  1  0  0  0  0
  3  9  1  0  0  0  0
  3 10  1  0  0  0  0
  4 12  1  0  0  0  0
  4 13  1  0  0  0  0
  5 14  1  0  0  0  0
  5 15  1  0  0  0  0
  6  7  1  0  0  0  0
  6 16  1  0  0  0  0
  6 17  1  0  0  0  0
  7 18  1  0  0  0  0
  7 19  1  0  0  0  0
  8 20  1  0  0  0  0
  8 21  1  0  0  0  0
  8 22  1  0  0  0  0
  9 23  1  0  0  0  0
  9 24  1  0  0  0  0
  9 25  1  0  0  0  0
 10 26  1  0  0  0  0
 10 27  1  0  0  0  0
 10 28  1  0  0  0  0
M  END
> <PUBCHEM_COMPOUND_CID>
138701

> <PUBCHEM_COMPOUND_CANONICALIZED>
1

> <PUBCHEM_CACTVS_COMPLEXITY>
157

> <PUBCHEM_CACTVS_HBOND_ACCEPTOR>
0

> <PUBCHEM_CACTVS_HBOND_DONOR>
0

> <PUBCHEM_CACTVS_ROTATABLE_BOND>
0

> <PUBCHEM_CACTVS_SUBSKEYS>
AAADceBwAAAAAAAAAAAAAAAAAAAAAYMAAAAwAAAAAAAAAAAAAAAAGAAAAAAADwCAAAACAAAAAAAAAAAAAAAAAAAAAAAAAAAAAAAAAAIAAAAAAAAAAAAAAAEAgMAPgAAAAAAAAACAAAQAACAAAQAACAAAAA==

> <PUBCHEM_IUPAC_OPENEYE_NAME>
1,3,3-trimethylnorbornane

> <PUBCHEM_IUPAC_CAS_NAME>
1,3,3-trimethylbicyclo[2.2.1]heptane

> <PUBCHEM_IUPAC_NAME_MARKUP>
1,3,3-trimethylbicyclo[2.2.1]heptane

> <PUBCHEM_IUPAC_NAME>
1,3,3-trimethylbicyclo[2.2.1]heptane

> <PUBCHEM_IUPAC_SYSTEMATIC_NAME>
1,3,3-trimethylbicyclo[2.2.1]heptane

> <PUBCHEM_IUPAC_TRADITIONAL_NAME>
1,3,3-trimethylnorbornane

> <PUBCHEM_IUPAC_INCHI>
InChI=1S/C10H18/c1-9(2)7-10(3)5-4-8(9)6-10/h8H,4-7H2,1-3H3

> <PUBCHEM_IUPAC_INCHIKEY>
HINAOCRDJFBYGD-UHFFFAOYSA-N

> <PUBCHEM_XLOGP3_AA>
4

> <PUBCHEM_EXACT_MASS>
138.140850574

> <PUBCHEM_MOLECULAR_FORMULA>
C10H18

> <PUBCHEM_MOLECULAR_WEIGHT>
138.25

> <PUBCHEM_SMILES>
CC1(CC2(CCC1C2)C)C

> <PUBCHEM_CONNECTIVITY_SMILES>
CC1(CC2(CCC1C2)C)C

> <PUBCHEM_CACTVS_TPSA>
0

> <PUBCHEM_MONOISOTOPIC_WEIGHT>
138.140850574

> <PUBCHEM_TOTAL_CHARGE>
0

> <PUBCHEM_HEAVY_ATOM_COUNT>
10

> <PUBCHEM_ATOM_DEF_STEREO_COUNT>
0

> <PUBCHEM_ATOM_UDEF_STEREO_COUNT>
2

> <PUBCHEM_BOND_DEF_STEREO_COUNT>
0

> <PUBCHEM_BOND_UDEF_STEREO_COUNT>
0

> <PUBCHEM_ISOTOPIC_ATOM_COUNT>
0

> <PUBCHEM_COMPONENT_COUNT>
1

> <PUBCHEM_CACTVS_TAUTO_COUNT>
-1

> <PUBCHEM_COORDINATE_TYPE>
1
5
255

> <PUBCHEM_BONDANNOTATIONS>
1  8  3
2  7  3

$$$$
