138830
  -OEChem-05122608442D

 48 48  0     0  0  0  0  0  0999 V2000
    2.8090   -3.4806    0.0000 C   0  0  0  0  0  0  0  0  0  0  0  0
    2.0000   -4.0684    0.0000 C   0  0  0  0  0  0  0  0  0  0  0  0
    3.6180   -4.0684    0.0000 C   0  0  0  0  0  0  0  0  0  0  0  0
    2.3090   -5.0194    0.0000 C   0  0  0  0  0  0  0  0  0  0  0  0
    3.3090   -5.0194    0.0000 C   0  0  0  0  0  0  0  0  0  0  0  0
    2.8090   -2.4806    0.0000 C   0  0  0  0  0  0  0  0  0  0  0  0
    3.6750   -1.9806    0.0000 C   0  0  0  0  0  0  0  0  0  0  0  0
    3.6750   -0.9806    0.0000 C   0  0  0  0  0  0  0  0  0  0  0  0
    4.5411   -0.4806    0.0000 C   0  0  0  0  0  0  0  0  0  0  0  0
    4.5411    0.5194    0.0000 C   0  0  0  0  0  0  0  0  0  0  0  0
    5.4071    1.0194    0.0000 C   0  0  0  0  0  0  0  0  0  0  0  0
    5.4071    2.0194    0.0000 C   0  0  0  0  0  0  0  0  0  0  0  0
    6.2731    2.5194    0.0000 C   0  0  0  0  0  0  0  0  0  0  0  0
    6.2731    3.5194    0.0000 C   0  0  0  0  0  0  0  0  0  0  0  0
    7.1391    4.0194    0.0000 C   0  0  0  0  0  0  0  0  0  0  0  0
    7.1391    5.0194    0.0000 C   0  0  0  0  0  0  0  0  0  0  0  0
    3.3614   -3.1991    0.0000 H   0  0  0  0  0  0  0  0  0  0  0  0
    1.6900   -3.5314    0.0000 H   0  0  0  0  0  0  0  0  0  0  0  0
    1.4336   -4.3205    0.0000 H   0  0  0  0  0  0  0  0  0  0  0  0
    4.1844   -4.3205    0.0000 H   0  0  0  0  0  0  0  0  0  0  0  0
    3.9280   -3.5314    0.0000 H   0  0  0  0  0  0  0  0  0  0  0  0
    1.7026   -5.1483    0.0000 H   0  0  0  0  0  0  0  0  0  0  0  0
    2.3738   -5.6360    0.0000 H   0  0  0  0  0  0  0  0  0  0  0  0
    3.2442   -5.6360    0.0000 H   0  0  0  0  0  0  0  0  0  0  0  0
    3.9155   -5.1483    0.0000 H   0  0  0  0  0  0  0  0  0  0  0  0
    2.5970   -1.8980    0.0000 H   0  0  0  0  0  0  0  0  0  0  0  0
    2.1984   -2.5882    0.0000 H   0  0  0  0  0  0  0  0  0  0  0  0
    3.8871   -2.5632    0.0000 H   0  0  0  0  0  0  0  0  0  0  0  0
    4.2856   -1.8729    0.0000 H   0  0  0  0  0  0  0  0  0  0  0  0
    3.4630   -0.3980    0.0000 H   0  0  0  0  0  0  0  0  0  0  0  0
    3.0645   -1.0882    0.0000 H   0  0  0  0  0  0  0  0  0  0  0  0
    4.7531   -1.0632    0.0000 H   0  0  0  0  0  0  0  0  0  0  0  0
    5.1516   -0.3729    0.0000 H   0  0  0  0  0  0  0  0  0  0  0  0
    4.3290    1.1020    0.0000 H   0  0  0  0  0  0  0  0  0  0  0  0
    3.9305    0.4118    0.0000 H   0  0  0  0  0  0  0  0  0  0  0  0
    5.6192    0.4368    0.0000 H   0  0  0  0  0  0  0  0  0  0  0  0
    6.0177    1.1271    0.0000 H   0  0  0  0  0  0  0  0  0  0  0  0
    5.1950    2.6020    0.0000 H   0  0  0  0  0  0  0  0  0  0  0  0
    4.7965    1.9118    0.0000 H   0  0  0  0  0  0  0  0  0  0  0  0
    6.4852    1.9368    0.0000 H   0  0  0  0  0  0  0  0  0  0  0  0
    6.8837    2.6271    0.0000 H   0  0  0  0  0  0  0  0  0  0  0  0
    6.0611    4.1020    0.0000 H   0  0  0  0  0  0  0  0  0  0  0  0
    5.6625    3.4118    0.0000 H   0  0  0  0  0  0  0  0  0  0  0  0
    7.3512    3.4368    0.0000 H   0  0  0  0  0  0  0  0  0  0  0  0
    7.7497    4.1271    0.0000 H   0  0  0  0  0  0  0  0  0  0  0  0
    7.7591    5.0194    0.0000 H   0  0  0  0  0  0  0  0  0  0  0  0
    7.1391    5.6394    0.0000 H   0  0  0  0  0  0  0  0  0  0  0  0
    6.5191    5.0194    0.0000 H   0  0  0  0  0  0  0  0  0  0  0  0
  1  2  1  0  0  0  0
  1  3  1  0  0  0  0
  1  6  1  0  0  0  0
  1 17  1  0  0  0  0
  2  4  1  0  0  0  0
  2 18  1  0  0  0  0
  2 19  1  0  0  0  0
  3  5  1  0  0  0  0
  3 20  1  0  0  0  0
  3 21  1  0  0  0  0
  4  5  1  0  0  0  0
  4 22  1  0  0  0  0
  4 23  1  0  0  0  0
  5 24  1  0  0  0  0
  5 25  1  0  0  0  0
  6  7  1  0  0  0  0
  6 26  1  0  0  0  0
  6 27  1  0  0  0  0
  7  8  1  0  0  0  0
  7 28  1  0  0  0  0
  7 29  1  0  0  0  0
  8  9  1  0  0  0  0
  8 30  1  0  0  0  0
  8 31  1  0  0  0  0
  9 10  1  0  0  0  0
  9 32  1  0  0  0  0
  9 33  1  0  0  0  0
 10 11  1  0  0  0  0
 10 34  1  0  0  0  0
 10 35  1  0  0  0  0
 11 12  1  0  0  0  0
 11 36  1  0  0  0  0
 11 37  1  0  0  0  0
 12 13  1  0  0  0  0
 12 38  1  0  0  0  0
 12 39  1  0  0  0  0
 13 14  1  0  0  0  0
 13 40  1  0  0  0  0
 13 41  1  0  0  0  0
 14 15  1  0  0  0  0
 14 42  1  0  0  0  0
 14 43  1  0  0  0  0
 15 16  1  0  0  0  0
 15 44  1  0  0  0  0
 15 45  1  0  0  0  0
 16 46  1  0  0  0  0
 16 47  1  0  0  0  0
 16 48  1  0  0  0  0
M  END
> <PUBCHEM_COMPOUND_CID>
138830

> <PUBCHEM_COMPOUND_CANONICALIZED>
1

> <PUBCHEM_CACTVS_COMPLEXITY>
133

> <PUBCHEM_CACTVS_HBOND_ACCEPTOR>
0

> <PUBCHEM_CACTVS_HBOND_DONOR>
0

> <PUBCHEM_CACTVS_ROTATABLE_BOND>
10

> <PUBCHEM_CACTVS_SUBSKEYS>
AAADcfB4AAAAAAAAAAAAAAAAAAAAAYAAAAAAAAAAAAAAAAAAAAAAGAAAAAAADQCAAAACAAAAAAAAAAAAAAAAAAAAAAAAAAAAAAAAAAIAAAAAAAAAAAAAAAEAgMAOAAAAAAAAAAAAAAAAAAAAAAAAAAAAAA==

> <PUBCHEM_IUPAC_OPENEYE_NAME>
undecylcyclopentane

> <PUBCHEM_IUPAC_CAS_NAME>
undecylcyclopentane

> <PUBCHEM_IUPAC_NAME_MARKUP>
undecylcyclopentane

> <PUBCHEM_IUPAC_NAME>
undecylcyclopentane

> <PUBCHEM_IUPAC_SYSTEMATIC_NAME>
undecylcyclopentane

> <PUBCHEM_IUPAC_TRADITIONAL_NAME>
undecylcyclopentane

> <PUBCHEM_IUPAC_INCHI>
InChI=1S/C16H32/c1-2-3-4-5-6-7-8-9-10-13-16-14-11-12-15-16/h16H,2-15H2,1H3

> <PUBCHEM_IUPAC_INCHIKEY>
FIWKORYTHDYMGF-UHFFFAOYSA-N

> <PUBCHEM_XLOGP3_AA>
8.4

> <PUBCHEM_EXACT_MASS>
224.250401021

> <PUBCHEM_MOLECULAR_FORMULA>
C16H32

> <PUBCHEM_MOLECULAR_WEIGHT>
224.42

> <PUBCHEM_SMILES>
CCCCCCCCCCCC1CCCC1

> <PUBCHEM_CONNECTIVITY_SMILES>
CCCCCCCCCCCC1CCCC1

> <PUBCHEM_CACTVS_TPSA>
0

> <PUBCHEM_MONOISOTOPIC_WEIGHT>
224.250401021

> <PUBCHEM_TOTAL_CHARGE>
0

> <PUBCHEM_HEAVY_ATOM_COUNT>
16

> <PUBCHEM_ATOM_DEF_STEREO_COUNT>
0

> <PUBCHEM_ATOM_UDEF_STEREO_COUNT>
0

> <PUBCHEM_BOND_DEF_STEREO_COUNT>
0

> <PUBCHEM_BOND_UDEF_STEREO_COUNT>
0

> <PUBCHEM_ISOTOPIC_ATOM_COUNT>
0

> <PUBCHEM_COMPONENT_COUNT>
1

> <PUBCHEM_CACTVS_TAUTO_COUNT>
-1

> <PUBCHEM_COORDINATE_TYPE>
1
5
255

$$$$
