138983
  -OEChem-05122609452D

 25 26  0     0  0  0  0  0  0999 V2000
    3.0000    1.0000    0.0000 C   0  0  0  0  0  0  0  0  0  0  0  0
    4.0000    1.0000    0.0000 C   0  0  0  0  0  0  0  0  0  0  0  0
    3.0000    2.0000    0.0000 C   0  0  0  0  0  0  0  0  0  0  0  0
    4.0000    2.0000    0.0000 C   0  0  0  0  0  0  0  0  0  0  0  0
    3.0000   -0.0000    0.0000 C   0  0  0  0  0  0  0  0  0  0  0  0
    2.0000    1.0000    0.0000 C   0  0  0  0  0  0  0  0  0  0  0  0
    2.1340   -0.5000    0.0000 C   0  0  0  0  0  0  0  0  0  0  0  0
    3.8660   -0.5000    0.0000 C   0  0  0  0  0  0  0  0  0  0  0  0
    2.1340   -1.5000    0.0000 C   0  0  0  0  0  0  0  0  0  0  0  0
    3.8660   -1.5000    0.0000 C   0  0  0  0  0  0  0  0  0  0  0  0
    3.0000   -2.0000    0.0000 C   0  0  0  0  0  0  0  0  0  0  0  0
    4.0000    0.3800    0.0000 H   0  0  0  0  0  0  0  0  0  0  0  0
    4.6200    1.0000    0.0000 H   0  0  0  0  0  0  0  0  0  0  0  0
    3.0000    2.6200    0.0000 H   0  0  0  0  0  0  0  0  0  0  0  0
    2.3800    2.0000    0.0000 H   0  0  0  0  0  0  0  0  0  0  0  0
    4.6200    2.0000    0.0000 H   0  0  0  0  0  0  0  0  0  0  0  0
    4.0000    2.6200    0.0000 H   0  0  0  0  0  0  0  0  0  0  0  0
    2.0000    1.6200    0.0000 H   0  0  0  0  0  0  0  0  0  0  0  0
    1.3800    1.0000    0.0000 H   0  0  0  0  0  0  0  0  0  0  0  0
    2.0000    0.3800    0.0000 H   0  0  0  0  0  0  0  0  0  0  0  0
    1.5970   -0.1900    0.0000 H   0  0  0  0  0  0  0  0  0  0  0  0
    4.4030   -0.1900    0.0000 H   0  0  0  0  0  0  0  0  0  0  0  0
    1.5970   -1.8100    0.0000 H   0  0  0  0  0  0  0  0  0  0  0  0
    4.4030   -1.8100    0.0000 H   0  0  0  0  0  0  0  0  0  0  0  0
    3.0000   -2.6200    0.0000 H   0  0  0  0  0  0  0  0  0  0  0  0
  1  2  1  0  0  0  0
  1  3  1  0  0  0  0
  1  5  1  0  0  0  0
  1  6  1  0  0  0  0
  2  4  1  0  0  0  0
  2 12  1  0  0  0  0
  2 13  1  0  0  0  0
  3  4  1  0  0  0  0
  3 14  1  0  0  0  0
  3 15  1  0  0  0  0
  4 16  1  0  0  0  0
  4 17  1  0  0  0  0
  5  7  2  0  0  0  0
  5  8  1  0  0  0  0
  6 18  1  0  0  0  0
  6 19  1  0  0  0  0
  6 20  1  0  0  0  0
  7  9  1  0  0  0  0
  7 21  1  0  0  0  0
  8 10  2  0  0  0  0
  8 22  1  0  0  0  0
  9 11  2  0  0  0  0
  9 23  1  0  0  0  0
 10 11  1  0  0  0  0
 10 24  1  0  0  0  0
 11 25  1  0  0  0  0
M  END
> <PUBCHEM_COMPOUND_CID>
138983

> <PUBCHEM_COMPOUND_CANONICALIZED>
1

> <PUBCHEM_CACTVS_COMPLEXITY>
127

> <PUBCHEM_CACTVS_HBOND_ACCEPTOR>
0

> <PUBCHEM_CACTVS_HBOND_DONOR>
0

> <PUBCHEM_CACTVS_ROTATABLE_BOND>
1

> <PUBCHEM_CACTVS_SUBSKEYS>
AAADccBwAAAAAAAAAAAAAAAAAABgAAAAAAAwAAAAAAAAAAABAAAAGAAAAAAADgCAGAAyAIAAAACAAiBCAAACAAAgAAAIiAAAAIgIICKAERCAIAAggAAIiAcAgMAPgAAAAAAAAAAAAAAAAAAAAAAAAAAAAA==

> <PUBCHEM_IUPAC_OPENEYE_NAME>
(1-methylcyclobutyl)benzene

> <PUBCHEM_IUPAC_CAS_NAME>
(1-methylcyclobutyl)benzene

> <PUBCHEM_IUPAC_NAME_MARKUP>
(1-methylcyclobutyl)benzene

> <PUBCHEM_IUPAC_NAME>
(1-methylcyclobutyl)benzene

> <PUBCHEM_IUPAC_SYSTEMATIC_NAME>
(1-methylcyclobutyl)benzene

> <PUBCHEM_IUPAC_TRADITIONAL_NAME>
(1-methylcyclobutyl)benzene

> <PUBCHEM_IUPAC_INCHI>
InChI=1S/C11H14/c1-11(8-5-9-11)10-6-3-2-4-7-10/h2-4,6-7H,5,8-9H2,1H3

> <PUBCHEM_IUPAC_INCHIKEY>
GRDSPXXZEBFXHZ-UHFFFAOYSA-N

> <PUBCHEM_XLOGP3_AA>
3.9

> <PUBCHEM_EXACT_MASS>
146.109550447

> <PUBCHEM_MOLECULAR_FORMULA>
C11H14

> <PUBCHEM_MOLECULAR_WEIGHT>
146.23

> <PUBCHEM_SMILES>
CC1(CCC1)C2=CC=CC=C2

> <PUBCHEM_CONNECTIVITY_SMILES>
CC1(CCC1)C2=CC=CC=C2

> <PUBCHEM_CACTVS_TPSA>
0

> <PUBCHEM_MONOISOTOPIC_WEIGHT>
146.109550447

> <PUBCHEM_TOTAL_CHARGE>
0

> <PUBCHEM_HEAVY_ATOM_COUNT>
11

> <PUBCHEM_ATOM_DEF_STEREO_COUNT>
0

> <PUBCHEM_ATOM_UDEF_STEREO_COUNT>
0

> <PUBCHEM_BOND_DEF_STEREO_COUNT>
0

> <PUBCHEM_BOND_UDEF_STEREO_COUNT>
0

> <PUBCHEM_ISOTOPIC_ATOM_COUNT>
0

> <PUBCHEM_COMPONENT_COUNT>
1

> <PUBCHEM_CACTVS_TAUTO_COUNT>
-1

> <PUBCHEM_COORDINATE_TYPE>
1
5
255

> <PUBCHEM_BONDANNOTATIONS>
10  11  8
5  7  8
5  8  8
7  9  8
8  10  8
9  11  8

$$$$
