140457
  -OEChem-05122609002D

 22 23  0     0  0  0  0  0  0999 V2000
    4.6260   -0.3970    0.0000 N   0  0  0  0  0  0  0  0  0  0  0  0
    2.8660   -1.3623    0.0000 N   0  0  0  0  0  0  0  0  0  0  0  0
    3.7321    1.1377    0.0000 C   0  0  0  0  0  0  0  0  0  0  0  0
    3.7321    0.1377    0.0000 C   0  0  0  0  0  0  0  0  0  0  0  0
    2.8660   -0.3623    0.0000 C   0  0  0  0  0  0  0  0  0  0  0  0
    4.6260    1.6723    0.0000 C   0  0  0  0  0  0  0  0  0  0  0  0
    5.5321    0.1169    0.0000 C   0  0  0  0  0  0  0  0  0  0  0  0
    2.8660    1.6377    0.0000 C   0  0  0  0  0  0  0  0  0  0  0  0
    5.5321    1.1585    0.0000 C   0  0  0  0  0  0  0  0  0  0  0  0
    2.0000    0.1377    0.0000 C   0  0  0  0  0  0  0  0  0  0  0  0
    2.0000    1.1377    0.0000 C   0  0  0  0  0  0  0  0  0  0  0  0
    6.3962   -0.3865    0.0000 C   0  0  0  0  0  0  0  0  0  0  0  0
    4.6188    2.2923    0.0000 H   0  0  0  0  0  0  0  0  0  0  0  0
    2.8660    2.2577    0.0000 H   0  0  0  0  0  0  0  0  0  0  0  0
    6.0678    1.4706    0.0000 H   0  0  0  0  0  0  0  0  0  0  0  0
    1.4631   -0.1723    0.0000 H   0  0  0  0  0  0  0  0  0  0  0  0
    1.4631    1.4477    0.0000 H   0  0  0  0  0  0  0  0  0  0  0  0
    6.0841   -0.9222    0.0000 H   0  0  0  0  0  0  0  0  0  0  0  0
    6.9319   -0.6985    0.0000 H   0  0  0  0  0  0  0  0  0  0  0  0
    6.7082    0.1493    0.0000 H   0  0  0  0  0  0  0  0  0  0  0  0
    2.3291   -1.6723    0.0000 H   0  0  0  0  0  0  0  0  0  0  0  0
    3.4030   -1.6723    0.0000 H   0  0  0  0  0  0  0  0  0  0  0  0
  1  4  1  0  0  0  0
  1  7  2  0  0  0  0
  2  5  1  0  0  0  0
  2 21  1  0  0  0  0
  2 22  1  0  0  0  0
  3  4  2  0  0  0  0
  3  6  1  0  0  0  0
  3  8  1  0  0  0  0
  4  5  1  0  0  0  0
  5 10  2  0  0  0  0
  6  9  2  0  0  0  0
  6 13  1  0  0  0  0
  7  9  1  0  0  0  0
  7 12  1  0  0  0  0
  8 11  2  0  0  0  0
  8 14  1  0  0  0  0
  9 15  1  0  0  0  0
 10 11  1  0  0  0  0
 10 16  1  0  0  0  0
 11 17  1  0  0  0  0
 12 18  1  0  0  0  0
 12 19  1  0  0  0  0
 12 20  1  0  0  0  0
M  END
> <PUBCHEM_COMPOUND_CID>
140457

> <PUBCHEM_COMPOUND_CANONICALIZED>
1

> <PUBCHEM_CACTVS_COMPLEXITY>
158

> <PUBCHEM_CACTVS_HBOND_ACCEPTOR>
2

> <PUBCHEM_CACTVS_HBOND_DONOR>
1

> <PUBCHEM_CACTVS_ROTATABLE_BOND>
0

> <PUBCHEM_CACTVS_SUBSKEYS>
AAADccBzAAAAAAAAAAAAAAAAAAAAAAAAAAA8QAAAAAAAAACx8AAAHAAQAAAADAiBHgAywPJIEACgAyRiRACCgCAhEiAImCAwdJgIYOLAkZGUIAhgkADIyAcQgIAOAAAAQAACACAAAACAAAQAQAAAAAAAAA==

> <PUBCHEM_IUPAC_OPENEYE_NAME>
2-methylquinolin-8-amine

> <PUBCHEM_IUPAC_CAS_NAME>
2-methyl-8-quinolinamine

> <PUBCHEM_IUPAC_NAME_MARKUP>
2-methylquinolin-8-amine

> <PUBCHEM_IUPAC_NAME>
2-methylquinolin-8-amine

> <PUBCHEM_IUPAC_SYSTEMATIC_NAME>
2-methylquinolin-8-amine

> <PUBCHEM_IUPAC_TRADITIONAL_NAME>
(2-methyl-8-quinolyl)amine

> <PUBCHEM_IUPAC_INCHI>
InChI=1S/C10H10N2/c1-7-5-6-8-3-2-4-9(11)10(8)12-7/h2-6H,11H2,1H3

> <PUBCHEM_IUPAC_INCHIKEY>
JHIAOWGCGNMQKA-UHFFFAOYSA-N

> <PUBCHEM_XLOGP3>
2

> <PUBCHEM_EXACT_MASS>
158.084398327

> <PUBCHEM_MOLECULAR_FORMULA>
C10H10N2

> <PUBCHEM_MOLECULAR_WEIGHT>
158.20

> <PUBCHEM_SMILES>
CC1=NC2=C(C=CC=C2N)C=C1

> <PUBCHEM_CONNECTIVITY_SMILES>
CC1=NC2=C(C=CC=C2N)C=C1

> <PUBCHEM_CACTVS_TPSA>
38.9

> <PUBCHEM_MONOISOTOPIC_WEIGHT>
158.084398327

> <PUBCHEM_TOTAL_CHARGE>
0

> <PUBCHEM_HEAVY_ATOM_COUNT>
12

> <PUBCHEM_ATOM_DEF_STEREO_COUNT>
0

> <PUBCHEM_ATOM_UDEF_STEREO_COUNT>
0

> <PUBCHEM_BOND_DEF_STEREO_COUNT>
0

> <PUBCHEM_BOND_UDEF_STEREO_COUNT>
0

> <PUBCHEM_ISOTOPIC_ATOM_COUNT>
0

> <PUBCHEM_COMPONENT_COUNT>
1

> <PUBCHEM_CACTVS_TAUTO_COUNT>
-1

> <PUBCHEM_COORDINATE_TYPE>
1
5
255

> <PUBCHEM_BONDANNOTATIONS>
1  4  8
1  7  8
10  11  8
3  4  8
3  6  8
3  8  8
4  5  8
5  10  8
6  9  8
7  9  8
8  11  8

$$$$
