140548
  -OEChem-05122609202D

 27 26  0     1  0  0  0  0  0999 V2000
    2.6340   -0.8170    0.0000 O   0  0  0  0  0  0  0  0  0  0  0  0
    3.5000   -0.3170    0.0000 C   0  0  3  0  0  0  0  0  0  0  0  0
    4.3660    0.1830    0.0000 C   0  0  3  0  0  0  0  0  0  0  0  0
    3.0000    0.5490    0.0000 C   0  0  0  0  0  0  0  0  0  0  0  0
    5.2321   -0.3170    0.0000 C   0  0  0  0  0  0  0  0  0  0  0  0
    4.0000   -1.1830    0.0000 C   0  0  0  0  0  0  0  0  0  0  0  0
    4.3660    1.1830    0.0000 C   0  0  0  0  0  0  0  0  0  0  0  0
    2.0000    0.5490    0.0000 C   0  0  0  0  0  0  0  0  0  0  0  0
    6.0981    0.1830    0.0000 C   0  0  0  0  0  0  0  0  0  0  0  0
    4.9030    0.4930    0.0000 H   0  0  0  0  0  0  0  0  0  0  0  0
    3.5826    0.7611    0.0000 H   0  0  0  0  0  0  0  0  0  0  0  0
    2.8923    1.1596    0.0000 H   0  0  0  0  0  0  0  0  0  0  0  0
    4.8335   -0.7919    0.0000 H   0  0  0  0  0  0  0  0  0  0  0  0
    5.6306   -0.7919    0.0000 H   0  0  0  0  0  0  0  0  0  0  0  0
    3.4631   -1.4930    0.0000 H   0  0  0  0  0  0  0  0  0  0  0  0
    4.3100   -1.7200    0.0000 H   0  0  0  0  0  0  0  0  0  0  0  0
    4.5369   -0.8730    0.0000 H   0  0  0  0  0  0  0  0  0  0  0  0
    4.9860    1.1830    0.0000 H   0  0  0  0  0  0  0  0  0  0  0  0
    4.3660    1.8030    0.0000 H   0  0  0  0  0  0  0  0  0  0  0  0
    3.7460    1.1830    0.0000 H   0  0  0  0  0  0  0  0  0  0  0  0
    2.0000    1.1690    0.0000 H   0  0  0  0  0  0  0  0  0  0  0  0
    1.3800    0.5490    0.0000 H   0  0  0  0  0  0  0  0  0  0  0  0
    2.0000   -0.0710    0.0000 H   0  0  0  0  0  0  0  0  0  0  0  0
    6.4081   -0.3539    0.0000 H   0  0  0  0  0  0  0  0  0  0  0  0
    6.6350    0.4930    0.0000 H   0  0  0  0  0  0  0  0  0  0  0  0
    5.7881    0.7199    0.0000 H   0  0  0  0  0  0  0  0  0  0  0  0
    2.0970   -0.5070    0.0000 H   0  0  0  0  0  0  0  0  0  0  0  0
  1  2  1  0  0  0  0
  1 27  1  0  0  0  0
  2  3  1  0  0  0  0
  2  4  1  0  0  0  0
  2  6  1  0  0  0  0
  3  5  1  0  0  0  0
  3  7  1  0  0  0  0
  3 10  1  0  0  0  0
  4  8  1  0  0  0  0
  4 11  1  0  0  0  0
  4 12  1  0  0  0  0
  5  9  1  0  0  0  0
  5 13  1  0  0  0  0
  5 14  1  0  0  0  0
  6 15  1  0  0  0  0
  6 16  1  0  0  0  0
  6 17  1  0  0  0  0
  7 18  1  0  0  0  0
  7 19  1  0  0  0  0
  7 20  1  0  0  0  0
  8 21  1  0  0  0  0
  8 22  1  0  0  0  0
  8 23  1  0  0  0  0
  9 24  1  0  0  0  0
  9 25  1  0  0  0  0
  9 26  1  0  0  0  0
M  END
> <PUBCHEM_COMPOUND_CID>
140548

> <PUBCHEM_COMPOUND_CANONICALIZED>
1

> <PUBCHEM_CACTVS_COMPLEXITY>
80.6

> <PUBCHEM_CACTVS_HBOND_ACCEPTOR>
1

> <PUBCHEM_CACTVS_HBOND_DONOR>
1

> <PUBCHEM_CACTVS_ROTATABLE_BOND>
3

> <PUBCHEM_CACTVS_SUBSKEYS>
AAADceBwIAAAAAAAAAAAAAAAAAAAAAAAAAAAAAAAAAAAAAAAAAAAGgAACAAADUSAgAACAAAAAgAAAAAAAAAAAAAAAAAAAAAAAAAAAAIAAAAAQAAEAAAAAAEAAAAOgAAAAAAAAAAAAAAAAAAAAAAAAAAAAA==

> <PUBCHEM_IUPAC_OPENEYE_NAME>
3,4-dimethylhexan-3-ol

> <PUBCHEM_IUPAC_CAS_NAME>
3,4-dimethyl-3-hexanol

> <PUBCHEM_IUPAC_NAME_MARKUP>
3,4-dimethylhexan-3-ol

> <PUBCHEM_IUPAC_NAME>
3,4-dimethylhexan-3-ol

> <PUBCHEM_IUPAC_SYSTEMATIC_NAME>
3,4-dimethylhexan-3-ol

> <PUBCHEM_IUPAC_TRADITIONAL_NAME>
3,4-dimethylhexan-3-ol

> <PUBCHEM_IUPAC_INCHI>
InChI=1S/C8H18O/c1-5-7(3)8(4,9)6-2/h7,9H,5-6H2,1-4H3

> <PUBCHEM_IUPAC_INCHIKEY>
FJXOYCIYKQJAAF-UHFFFAOYSA-N

> <PUBCHEM_XLOGP3_AA>
2.4

> <PUBCHEM_EXACT_MASS>
130.135765193

> <PUBCHEM_MOLECULAR_FORMULA>
C8H18O

> <PUBCHEM_MOLECULAR_WEIGHT>
130.23

> <PUBCHEM_SMILES>
CCC(C)C(C)(CC)O

> <PUBCHEM_CONNECTIVITY_SMILES>
CCC(C)C(C)(CC)O

> <PUBCHEM_CACTVS_TPSA>
20.2

> <PUBCHEM_MONOISOTOPIC_WEIGHT>
130.135765193

> <PUBCHEM_TOTAL_CHARGE>
0

> <PUBCHEM_HEAVY_ATOM_COUNT>
9

> <PUBCHEM_ATOM_DEF_STEREO_COUNT>
0

> <PUBCHEM_ATOM_UDEF_STEREO_COUNT>
2

> <PUBCHEM_BOND_DEF_STEREO_COUNT>
0

> <PUBCHEM_BOND_UDEF_STEREO_COUNT>
0

> <PUBCHEM_ISOTOPIC_ATOM_COUNT>
0

> <PUBCHEM_COMPONENT_COUNT>
1

> <PUBCHEM_CACTVS_TAUTO_COUNT>
-1

> <PUBCHEM_COORDINATE_TYPE>
1
5
255

> <PUBCHEM_BONDANNOTATIONS>
2  1  3
3  7  3

$$$$
