14055911
  -OEChem-05122609522D

 54 57  0     1  0  0  0  0  0999 V2000
    9.1469   -1.9824    0.0000 O   0  0  0  0  0  0  0  0  0  0  0  0
    3.7320   -2.0032    0.0000 O   0  0  0  0  0  0  0  0  0  0  0  0
    2.8718   -0.4999    0.0000 O   0  0  0  0  0  0  0  0  0  0  0  0
    9.1251    0.0491    0.0000 C   0  0  2  0  0  0  0  0  0  0  0  0
    9.1251    1.0491    0.0000 C   0  0  2  0  0  0  0  0  0  0  0  0
    7.3931    0.0491    0.0000 C   0  0  1  0  0  0  0  0  0  0  0  0
    8.2591   -0.4509    0.0000 C   0  0  1  0  0  0  0  0  0  0  0  0
    6.4831   -0.4578    0.0000 C   0  0  2  0  0  0  0  0  0  0  0  0
    8.2591    1.5491    0.0000 C   0  0  0  0  0  0  0  0  0  0  0  0
    7.3931    1.0491    0.0000 C   0  0  0  0  0  0  0  0  0  0  0  0
   10.0713   -0.2556    0.0000 C   0  0  0  0  0  0  0  0  0  0  0  0
   10.0713    1.3538    0.0000 C   0  0  0  0  0  0  0  0  0  0  0  0
   10.6550    0.5491    0.0000 C   0  0  0  0  0  0  0  0  0  0  0  0
    6.4750   -1.4994    0.0000 C   0  0  0  0  0  0  0  0  0  0  0  0
    5.5562    0.1063    0.0000 C   0  0  0  0  0  0  0  0  0  0  0  0
    9.1251    2.0491    0.0000 C   0  0  0  0  0  0  0  0  0  0  0  0
    8.2752   -1.4924    0.0000 C   0  0  0  0  0  0  0  0  0  0  0  0
    6.4908    0.5422    0.0000 C   0  0  0  0  0  0  0  0  0  0  0  0
    7.3771   -2.0202    0.0000 C   0  0  0  0  0  0  0  0  0  0  0  0
    5.5396   -2.0491    0.0000 C   0  0  0  0  0  0  0  0  0  0  0  0
    4.6084   -0.4216    0.0000 C   0  0  0  0  0  0  0  0  0  0  0  0
    4.6000   -1.5066    0.0000 C   0  0  2  0  0  0  0  0  0  0  0  0
    2.8680   -1.4999    0.0000 C   0  0  0  0  0  0  0  0  0  0  0  0
    2.0000   -1.9966    0.0000 C   0  0  0  0  0  0  0  0  0  0  0  0
    9.2151   -0.7961    0.0000 H   0  0  0  0  0  0  0  0  0  0  0  0
    8.1292    0.4741    0.0000 H   0  0  0  0  0  0  0  0  0  0  0  0
    8.9985   -0.8702    0.0000 H   0  0  0  0  0  0  0  0  0  0  0  0
    8.6576    2.0240    0.0000 H   0  0  0  0  0  0  0  0  0  0  0  0
    7.8606    2.0240    0.0000 H   0  0  0  0  0  0  0  0  0  0  0  0
    7.1810    1.6317    0.0000 H   0  0  0  0  0  0  0  0  0  0  0  0
    6.7825    0.9414    0.0000 H   0  0  0  0  0  0  0  0  0  0  0  0
    9.8203   -0.8226    0.0000 H   0  0  0  0  0  0  0  0  0  0  0  0
   10.6087   -0.5649    0.0000 H   0  0  0  0  0  0  0  0  0  0  0  0
   10.6087    1.6630    0.0000 H   0  0  0  0  0  0  0  0  0  0  0  0
    9.8203    1.9207    0.0000 H   0  0  0  0  0  0  0  0  0  0  0  0
   11.1158    0.1344    0.0000 H   0  0  0  0  0  0  0  0  0  0  0  0
   11.1158    0.9638    0.0000 H   0  0  0  0  0  0  0  0  0  0  0  0
    5.9644    0.5730    0.0000 H   0  0  0  0  0  0  0  0  0  0  0  0
    5.1663    0.5884    0.0000 H   0  0  0  0  0  0  0  0  0  0  0  0
    9.7451    2.0491    0.0000 H   0  0  0  0  0  0  0  0  0  0  0  0
    9.1251    2.6691    0.0000 H   0  0  0  0  0  0  0  0  0  0  0  0
    8.5051    2.0491    0.0000 H   0  0  0  0  0  0  0  0  0  0  0  0
    7.1108    0.5374    0.0000 H   0  0  0  0  0  0  0  0  0  0  0  0
    6.4956    1.1622    0.0000 H   0  0  0  0  0  0  0  0  0  0  0  0
    5.8708    0.5470    0.0000 H   0  0  0  0  0  0  0  0  0  0  0  0
    7.3795   -2.6402    0.0000 H   0  0  0  0  0  0  0  0  0  0  0  0
    5.1423   -2.5251    0.0000 H   0  0  0  0  0  0  0  0  0  0  0  0
    5.9406   -2.5220    0.0000 H   0  0  0  0  0  0  0  0  0  0  0  0
    4.4038    0.1637    0.0000 H   0  0  0  0  0  0  0  0  0  0  0  0
    3.9967   -0.5230    0.0000 H   0  0  0  0  0  0  0  0  0  0  0  0
    4.0648   -1.1935    0.0000 H   0  0  0  0  0  0  0  0  0  0  0  0
    1.6921   -1.4584    0.0000 H   0  0  0  0  0  0  0  0  0  0  0  0
    1.4619   -2.3045    0.0000 H   0  0  0  0  0  0  0  0  0  0  0  0
    2.3079   -2.5347    0.0000 H   0  0  0  0  0  0  0  0  0  0  0  0
  1 17  2  0  0  0  0
 22  2  1  1  0  0  0
  2 23  1  0  0  0  0
  3 23  2  0  0  0  0
  4  5  1  0  0  0  0
  4  7  1  0  0  0  0
  4 11  1  0  0  0  0
  4 25  1  6  0  0  0
  5  9  1  0  0  0  0
  5 12  1  0  0  0  0
  5 16  1  1  0  0  0
  6  7  1  0  0  0  0
  6  8  1  0  0  0  0
  6 10  1  0  0  0  0
  6 26  1  6  0  0  0
  7 17  1  0  0  0  0
  7 27  1  1  0  0  0
  8 14  1  0  0  0  0
  8 15  1  0  0  0  0
  8 18  1  1  0  0  0
  9 10  1  0  0  0  0
  9 28  1  0  0  0  0
  9 29  1  0  0  0  0
 10 30  1  0  0  0  0
 10 31  1  0  0  0  0
 11 13  1  0  0  0  0
 11 32  1  0  0  0  0
 11 33  1  0  0  0  0
 12 13  1  0  0  0  0
 12 34  1  0  0  0  0
 12 35  1  0  0  0  0
 13 36  1  0  0  0  0
 13 37  1  0  0  0  0
 14 19  2  0  0  0  0
 14 20  1  0  0  0  0
 15 21  1  0  0  0  0
 15 38  1  0  0  0  0
 15 39  1  0  0  0  0
 16 40  1  0  0  0  0
 16 41  1  0  0  0  0
 16 42  1  0  0  0  0
 17 19  1  0  0  0  0
 18 43  1  0  0  0  0
 18 44  1  0  0  0  0
 18 45  1  0  0  0  0
 19 46  1  0  0  0  0
 20 22  1  0  0  0  0
 20 47  1  0  0  0  0
 20 48  1  0  0  0  0
 21 22  1  0  0  0  0
 21 49  1  0  0  0  0
 21 50  1  0  0  0  0
 22 51  1  0  0  0  0
 23 24  1  0  0  0  0
 24 52  1  0  0  0  0
 24 53  1  0  0  0  0
 24 54  1  0  0  0  0
M  END
> <PUBCHEM_COMPOUND_CID>
14055911

> <PUBCHEM_COMPOUND_CANONICALIZED>
1

> <PUBCHEM_CACTVS_COMPLEXITY>
606

> <PUBCHEM_CACTVS_HBOND_ACCEPTOR>
3

> <PUBCHEM_CACTVS_HBOND_DONOR>
0

> <PUBCHEM_CACTVS_ROTATABLE_BOND>
2

> <PUBCHEM_CACTVS_SUBSKEYS>
AAADceB4MAAAAAAAAAAAAAAAAAAAAYAAAAAwYIAAAAAAAGCAAAAAGgAAAAAADxSggAICCAAABACIAqDSCAAAAAAgAAAACAEAAEgAABIAAQACAAAEwAAIAQOIyPCPgAAAAAAAAADAAAQAACAAAAAACAAAAA==

> <PUBCHEM_IUPAC_OPENEYE_NAME>
[(3S,8S,9S,10R,13S,14S)-10,13-dimethyl-7-oxo-1,2,3,4,8,9,11,12,14,15,16,17-dodecahydrocyclopenta[a]phenanthren-3-yl] acetate

> <PUBCHEM_IUPAC_CAS_NAME>
acetic acid [(3S,8S,9S,10R,13S,14S)-10,13-dimethyl-7-oxo-1,2,3,4,8,9,11,12,14,15,16,17-dodecahydrocyclopenta[a]phenanthren-3-yl] ester

> <PUBCHEM_IUPAC_NAME_MARKUP>
[(3<I>S</I>,8<I>S</I>,9<I>S</I>,10<I>R</I>,13<I>S</I>,14<I>S</I>)-10,13-dimethyl-7-oxo-1,2,3,4,8,9,11,12,14,15,16,17-dodecahydrocyclopenta[a]phenanthren-3-yl] acetate

> <PUBCHEM_IUPAC_NAME>
[(3S,8S,9S,10R,13S,14S)-10,13-dimethyl-7-oxo-1,2,3,4,8,9,11,12,14,15,16,17-dodecahydrocyclopenta[a]phenanthren-3-yl] acetate

> <PUBCHEM_IUPAC_SYSTEMATIC_NAME>
[(3S,8S,9S,10R,13S,14S)-10,13-dimethyl-7-oxidanylidene-1,2,3,4,8,9,11,12,14,15,16,17-dodecahydrocyclopenta[a]phenanthren-3-yl] ethanoate

> <PUBCHEM_IUPAC_TRADITIONAL_NAME>
acetic acid [(3S,8S,9S,10R,13S,14S)-7-keto-10,13-dimethyl-1,2,3,4,8,9,11,12,14,15,16,17-dodecahydrocyclopenta[a]phenanthren-3-yl] ester

> <PUBCHEM_IUPAC_INCHI>
InChI=1S/C21H30O3/c1-13(22)24-15-6-10-21(3)14(11-15)12-18(23)19-16-5-4-8-20(16,2)9-7-17(19)21/h12,15-17,19H,4-11H2,1-3H3/t15-,16-,17-,19-,20-,21-/m0/s1

> <PUBCHEM_IUPAC_INCHIKEY>
SDCOFNKFMXLZIF-RYMRXWPBSA-N

> <PUBCHEM_XLOGP3_AA>
4.6

> <PUBCHEM_EXACT_MASS>
330.21949481

> <PUBCHEM_MOLECULAR_FORMULA>
C21H30O3

> <PUBCHEM_MOLECULAR_WEIGHT>
330.5

> <PUBCHEM_SMILES>
CC(=O)O[C@H]1CC[C@@]2([C@H]3CC[C@@]4(CCC[C@H]4[C@@H]3C(=O)C=C2C1)C)C

> <PUBCHEM_CONNECTIVITY_SMILES>
CC(=O)OC1CCC2(C3CCC4(CCCC4C3C(=O)C=C2C1)C)C

> <PUBCHEM_CACTVS_TPSA>
43.4

> <PUBCHEM_MONOISOTOPIC_WEIGHT>
330.21949481

> <PUBCHEM_TOTAL_CHARGE>
0

> <PUBCHEM_HEAVY_ATOM_COUNT>
24

> <PUBCHEM_ATOM_DEF_STEREO_COUNT>
6

> <PUBCHEM_ATOM_UDEF_STEREO_COUNT>
0

> <PUBCHEM_BOND_DEF_STEREO_COUNT>
0

> <PUBCHEM_BOND_UDEF_STEREO_COUNT>
0

> <PUBCHEM_ISOTOPIC_ATOM_COUNT>
0

> <PUBCHEM_COMPONENT_COUNT>
1

> <PUBCHEM_CACTVS_TAUTO_COUNT>
-1

> <PUBCHEM_COORDINATE_TYPE>
1
5
255

> <PUBCHEM_BONDANNOTATIONS>
22  2  5
4  25  6
5  16  5
6  26  6
7  27  5
8  18  5

$$$$
