14149410
  -OEChem-05122609432D

 23 24  0     0  0  0  0  0  0999 V2000
    5.4641   -0.7057    0.0000 Br  0  0  0  0  0  0  0  0  0  0  0  0
    2.0000   -0.7057    0.0000 Br  0  0  0  0  0  0  0  0  0  0  0  0
    2.4465    1.8264    0.0000 Br  0  0  0  0  0  0  0  0  0  0  0  0
    5.7017    0.6416    0.0000 Br  0  0  0  0  0  0  0  0  0  0  0  0
    2.0000   -2.7057    0.0000 Br  0  0  0  0  0  0  0  0  0  0  0  0
    5.4641   -2.7057    0.0000 Br  0  0  0  0  0  0  0  0  0  0  0  0
    3.7321   -3.7057    0.0000 Br  0  0  0  0  0  0  0  0  0  0  0  0
    6.3857    2.5209    0.0000 Br  0  0  0  0  0  0  0  0  0  0  0  0
    3.1305    3.7057    0.0000 Br  0  0  0  0  0  0  0  0  0  0  0  0
    3.7321    0.2943    0.0000 O   0  0  0  0  0  0  0  0  0  0  0  0
    3.7321   -0.7057    0.0000 C   0  0  0  0  0  0  0  0  0  0  0  0
    4.0741    1.2340    0.0000 C   0  0  0  0  0  0  0  0  0  0  0  0
    4.5981   -1.2057    0.0000 C   0  0  0  0  0  0  0  0  0  0  0  0
    2.8660   -1.2057    0.0000 C   0  0  0  0  0  0  0  0  0  0  0  0
    3.4313    2.0000    0.0000 C   0  0  0  0  0  0  0  0  0  0  0  0
    5.0589    1.4076    0.0000 C   0  0  0  0  0  0  0  0  0  0  0  0
    2.8660   -2.2057    0.0000 C   0  0  0  0  0  0  0  0  0  0  0  0
    4.5981   -2.2057    0.0000 C   0  0  0  0  0  0  0  0  0  0  0  0
    3.7321   -2.7057    0.0000 C   0  0  0  0  0  0  0  0  0  0  0  0
    5.4009    2.3473    0.0000 C   0  0  0  0  0  0  0  0  0  0  0  0
    3.7733    2.9397    0.0000 C   0  0  0  0  0  0  0  0  0  0  0  0
    4.7581    3.1133    0.0000 C   0  0  0  0  0  0  0  0  0  0  0  0
    4.9702    3.6960    0.0000 H   0  0  0  0  0  0  0  0  0  0  0  0
  1 13  1  0  0  0  0
  2 14  1  0  0  0  0
  3 15  1  0  0  0  0
  4 16  1  0  0  0  0
  5 17  1  0  0  0  0
  6 18  1  0  0  0  0
  7 19  1  0  0  0  0
  8 20  1  0  0  0  0
  9 21  1  0  0  0  0
 10 11  1  0  0  0  0
 10 12  1  0  0  0  0
 11 13  2  0  0  0  0
 11 14  1  0  0  0  0
 12 15  2  0  0  0  0
 12 16  1  0  0  0  0
 13 18  1  0  0  0  0
 14 17  2  0  0  0  0
 15 21  1  0  0  0  0
 16 20  2  0  0  0  0
 17 19  1  0  0  0  0
 18 19  2  0  0  0  0
 20 22  1  0  0  0  0
 21 22  2  0  0  0  0
 22 23  1  0  0  0  0
M  END
> <PUBCHEM_COMPOUND_CID>
14149410

> <PUBCHEM_COMPOUND_CANONICALIZED>
1

> <PUBCHEM_CACTVS_COMPLEXITY>
356

> <PUBCHEM_CACTVS_HBOND_ACCEPTOR>
1

> <PUBCHEM_CACTVS_HBOND_DONOR>
0

> <PUBCHEM_CACTVS_ROTATABLE_BOND>
2

> <PUBCHEM_CACTVS_SUBSKEYS>
AAADcQBwIAAAHAAAAAAAAAAAAAAAAAAAAAAwYAAAAAAAAAABQAAAGgBAAAABqASAkAAwBoAABACAACBCAAACCAAgIAQAiAAECKgMJiKEMBqCOCCkwBEIqheAQAAAABAEAIAgBAEAIAgBAEAIAgAAAAAAAA==

> <PUBCHEM_IUPAC_OPENEYE_NAME>
1,2,3,4,5-pentabromo-6-(2,3,5,6-tetrabromophenoxy)benzene

> <PUBCHEM_IUPAC_CAS_NAME>
1,2,3,4,5-pentabromo-6-(2,3,5,6-tetrabromophenoxy)benzene

> <PUBCHEM_IUPAC_NAME_MARKUP>
1,2,3,4,5-pentabromo-6-(2,3,5,6-tetrabromophenoxy)benzene

> <PUBCHEM_IUPAC_NAME>
1,2,3,4,5-pentabromo-6-(2,3,5,6-tetrabromophenoxy)benzene

> <PUBCHEM_IUPAC_SYSTEMATIC_NAME>
1,2,3,4,5-pentakis(bromanyl)-6-[2,3,5,6-tetrakis(bromanyl)phenoxy]benzene

> <PUBCHEM_IUPAC_TRADITIONAL_NAME>
1,2,3,4,5-pentabromo-6-(2,3,5,6-tetrabromophenoxy)benzene

> <PUBCHEM_IUPAC_INCHI>
InChI=1S/C12HBr9O/c13-2-1-3(14)5(16)11(4(2)15)22-12-9(20)7(18)6(17)8(19)10(12)21/h1H

> <PUBCHEM_IUPAC_INCHIKEY>
ASGZXYIDLFWXID-UHFFFAOYSA-N

> <PUBCHEM_XLOGP3_AA>
9.7

> <PUBCHEM_EXACT_MASS>
879.25958

> <PUBCHEM_MOLECULAR_FORMULA>
C12HBr9O

> <PUBCHEM_MOLECULAR_WEIGHT>
880.3

> <PUBCHEM_SMILES>
C1=C(C(=C(C(=C1Br)Br)OC2=C(C(=C(C(=C2Br)Br)Br)Br)Br)Br)Br

> <PUBCHEM_CONNECTIVITY_SMILES>
C1=C(C(=C(C(=C1Br)Br)OC2=C(C(=C(C(=C2Br)Br)Br)Br)Br)Br)Br

> <PUBCHEM_CACTVS_TPSA>
9.2

> <PUBCHEM_MONOISOTOPIC_WEIGHT>
871.26778

> <PUBCHEM_TOTAL_CHARGE>
0

> <PUBCHEM_HEAVY_ATOM_COUNT>
22

> <PUBCHEM_ATOM_DEF_STEREO_COUNT>
0

> <PUBCHEM_ATOM_UDEF_STEREO_COUNT>
0

> <PUBCHEM_BOND_DEF_STEREO_COUNT>
0

> <PUBCHEM_BOND_UDEF_STEREO_COUNT>
0

> <PUBCHEM_ISOTOPIC_ATOM_COUNT>
0

> <PUBCHEM_COMPONENT_COUNT>
1

> <PUBCHEM_CACTVS_TAUTO_COUNT>
-1

> <PUBCHEM_COORDINATE_TYPE>
1
5
255

> <PUBCHEM_BONDANNOTATIONS>
11  13  8
11  14  8
12  15  8
12  16  8
13  18  8
14  17  8
15  21  8
16  20  8
17  19  8
18  19  8
20  22  8
21  22  8

$$$$
