14250578
  -OEChem-05122609052D

 32 31  0     0  0  0  0  0  0999 V2000
    3.4030   -0.9815    0.0000 P   0  0  0  0  0  0  0  0  0  0  0  0
    8.0991    0.8845    0.0000 F   0  0  0  0  0  0  0  0  0  0  0  0
    9.0991   -0.8476    0.0000 F   0  0  0  0  0  0  0  0  0  0  0  0
    7.2331    0.3845    0.0000 F   0  0  0  0  0  0  0  0  0  0  0  0
    8.2331   -1.3476    0.0000 F   0  0  0  0  0  0  0  0  0  0  0  0
    8.9651    1.3845    0.0000 F   0  0  0  0  0  0  0  0  0  0  0  0
    9.9651   -0.3476    0.0000 F   0  0  0  0  0  0  0  0  0  0  0  0
    6.3671   -0.1155    0.0000 F   0  0  0  0  0  0  0  0  0  0  0  0
    7.3671   -1.8476    0.0000 F   0  0  0  0  0  0  0  0  0  0  0  0
   10.8312    0.1524    0.0000 F   0  0  0  0  0  0  0  0  0  0  0  0
    9.8312    1.8845    0.0000 F   0  0  0  0  0  0  0  0  0  0  0  0
   12.0632    2.0185    0.0000 F   0  0  0  0  0  0  0  0  0  0  0  0
   11.6972    0.6524    0.0000 F   0  0  0  0  0  0  0  0  0  0  0  0
   10.6972    2.3845    0.0000 F   0  0  0  0  0  0  0  0  0  0  0  0
    4.2690   -1.4815    0.0000 O   0  0  0  0  0  0  0  0  0  0  0  0
    2.5369   -0.4815    0.0000 O   0  0  0  0  0  0  0  0  0  0  0  0
    2.9030   -1.8476    0.0000 O   0  0  0  0  0  0  0  0  0  0  0  0
    3.9030   -0.1155    0.0000 O   0  0  0  0  0  0  0  0  0  0  0  0
    8.5991    0.0185    0.0000 C   0  0  0  0  0  0  0  0  0  0  0  0
    7.7331   -0.4815    0.0000 C   0  0  0  0  0  0  0  0  0  0  0  0
    9.4651    0.5185    0.0000 C   0  0  0  0  0  0  0  0  0  0  0  0
    6.8671   -0.9815    0.0000 C   0  0  0  0  0  0  0  0  0  0  0  0
    6.0010   -1.4815    0.0000 C   0  0  0  0  0  0  0  0  0  0  0  0
   10.3312    1.0185    0.0000 C   0  0  0  0  0  0  0  0  0  0  0  0
    5.1350   -0.9815    0.0000 C   0  0  0  0  0  0  0  0  0  0  0  0
   11.1972    1.5185    0.0000 C   0  0  0  0  0  0  0  0  0  0  0  0
    5.6025   -1.9565    0.0000 H   0  0  0  0  0  0  0  0  0  0  0  0
    6.3996   -1.9565    0.0000 H   0  0  0  0  0  0  0  0  0  0  0  0
    5.5335   -0.5066    0.0000 H   0  0  0  0  0  0  0  0  0  0  0  0
    4.7365   -0.5066    0.0000 H   0  0  0  0  0  0  0  0  0  0  0  0
    2.0000   -0.7915    0.0000 H   0  0  0  0  0  0  0  0  0  0  0  0
    3.2130   -2.3845    0.0000 H   0  0  0  0  0  0  0  0  0  0  0  0
  1 15  1  0  0  0  0
  1 16  1  0  0  0  0
  1 17  1  0  0  0  0
  1 18  2  0  0  0  0
  2 19  1  0  0  0  0
  3 19  1  0  0  0  0
  4 20  1  0  0  0  0
  5 20  1  0  0  0  0
  6 21  1  0  0  0  0
  7 21  1  0  0  0  0
  8 22  1  0  0  0  0
  9 22  1  0  0  0  0
 10 24  1  0  0  0  0
 11 24  1  0  0  0  0
 12 26  1  0  0  0  0
 13 26  1  0  0  0  0
 14 26  1  0  0  0  0
 15 25  1  0  0  0  0
 16 31  1  0  0  0  0
 17 32  1  0  0  0  0
 19 20  1  0  0  0  0
 19 21  1  0  0  0  0
 20 22  1  0  0  0  0
 21 24  1  0  0  0  0
 22 23  1  0  0  0  0
 23 25  1  0  0  0  0
 23 27  1  0  0  0  0
 23 28  1  0  0  0  0
 24 26  1  0  0  0  0
 25 29  1  0  0  0  0
 25 30  1  0  0  0  0
M  END
> <PUBCHEM_COMPOUND_CID>
14250578

> <PUBCHEM_COMPOUND_CANONICALIZED>
1

> <PUBCHEM_CACTVS_COMPLEXITY>
551

> <PUBCHEM_CACTVS_HBOND_ACCEPTOR>
17

> <PUBCHEM_CACTVS_HBOND_DONOR>
2

> <PUBCHEM_CACTVS_ROTATABLE_BOND>
8

> <PUBCHEM_CACTVS_SUBSKEYS>
AAADcYBwOcIAAAAAAAAAAAAAAAAAAAAAAAAAAAAAAAAAAAAAAAAAGwAACCAACACggBIAAAAAARAAQAAAAIAAAAAAAAAAAAAAAAAAAAIAAAAAAAAEAAAAAAGAwKAAAAAAAAAAAAAAAAAAAAAAAAAAAAAAAA==

> <PUBCHEM_IUPAC_OPENEYE_NAME>
3,3,4,4,5,5,6,6,7,7,8,8,8-tridecafluorooctyl dihydrogen phosphate

> <PUBCHEM_IUPAC_CAS_NAME>
3,3,4,4,5,5,6,6,7,7,8,8,8-tridecafluorooctyl dihydrogen phosphate

> <PUBCHEM_IUPAC_NAME_MARKUP>
3,3,4,4,5,5,6,6,7,7,8,8,8-tridecafluorooctyl dihydrogen phosphate

> <PUBCHEM_IUPAC_NAME>
3,3,4,4,5,5,6,6,7,7,8,8,8-tridecafluorooctyl dihydrogen phosphate

> <PUBCHEM_IUPAC_SYSTEMATIC_NAME>
3,3,4,4,5,5,6,6,7,7,8,8,8-tridecakis(fluoranyl)octyl dihydrogen phosphate

> <PUBCHEM_IUPAC_TRADITIONAL_NAME>
3,3,4,4,5,5,6,6,7,7,8,8,8-tridecafluorooctyl dihydrogen phosphate

> <PUBCHEM_IUPAC_INCHI>
InChI=1S/C8H6F13O4P/c9-3(10,1-2-25-26(22,23)24)4(11,12)5(13,14)6(15,16)7(17,18)8(19,20)21/h1-2H2,(H2,22,23,24)

> <PUBCHEM_IUPAC_INCHIKEY>
FZTRDYSPWWJCOF-UHFFFAOYSA-N

> <PUBCHEM_XLOGP3_AA>
3.3

> <PUBCHEM_EXACT_MASS>
443.9796118

> <PUBCHEM_MOLECULAR_FORMULA>
C8H6F13O4P

> <PUBCHEM_MOLECULAR_WEIGHT>
444.08

> <PUBCHEM_SMILES>
C(COP(=O)(O)O)C(C(C(C(C(C(F)(F)F)(F)F)(F)F)(F)F)(F)F)(F)F

> <PUBCHEM_CONNECTIVITY_SMILES>
C(COP(=O)(O)O)C(C(C(C(C(C(F)(F)F)(F)F)(F)F)(F)F)(F)F)(F)F

> <PUBCHEM_CACTVS_TPSA>
66.8

> <PUBCHEM_MONOISOTOPIC_WEIGHT>
443.9796118

> <PUBCHEM_TOTAL_CHARGE>
0

> <PUBCHEM_HEAVY_ATOM_COUNT>
26

> <PUBCHEM_ATOM_DEF_STEREO_COUNT>
0

> <PUBCHEM_ATOM_UDEF_STEREO_COUNT>
0

> <PUBCHEM_BOND_DEF_STEREO_COUNT>
0

> <PUBCHEM_BOND_UDEF_STEREO_COUNT>
0

> <PUBCHEM_ISOTOPIC_ATOM_COUNT>
0

> <PUBCHEM_COMPONENT_COUNT>
1

> <PUBCHEM_CACTVS_TAUTO_COUNT>
-1

> <PUBCHEM_COORDINATE_TYPE>
1
5
255

$$$$
