14366844
  -OEChem-05122609562D

 92 91  0     1  0  0  0  0  0999 V2000
    7.1962   -2.5981    0.0000 O   0  0  0  0  0  0  0  0  0  0  0  0
   10.6603   -2.5981    0.0000 O   0  0  0  0  0  0  0  0  0  0  0  0
    8.9282   -0.8660    0.0000 O   0  0  0  0  0  0  0  0  0  0  0  0
    6.3301   -4.0981    0.0000 O   0  0  0  0  0  0  0  0  0  0  0  0
   11.5263   -1.0981    0.0000 O   0  0  0  0  0  0  0  0  0  0  0  0
    7.4282    0.0000    0.0000 O   0  0  0  0  0  0  0  0  0  0  0  0
    8.9282   -2.5981    0.0000 C   0  0  0  0  0  0  0  0  0  0  0  0
    9.4282   -3.4641    0.0000 C   0  0  0  0  0  0  0  0  0  0  0  0
    8.0622   -3.0981    0.0000 C   0  0  0  0  0  0  0  0  0  0  0  0
    9.7942   -2.0981    0.0000 C   0  0  0  0  0  0  0  0  0  0  0  0
    8.4282   -1.7321    0.0000 C   0  0  0  0  0  0  0  0  0  0  0  0
    8.9282   -4.3301    0.0000 C   0  0  0  0  0  0  0  0  0  0  0  0
    5.4641   -2.5981    0.0000 C   0  0  3  0  0  0  0  0  0  0  0  0
   12.3923   -2.5981    0.0000 C   0  0  3  0  0  0  0  0  0  0  0  0
    8.9282    0.8660    0.0000 C   0  0  3  0  0  0  0  0  0  0  0  0
    4.5981   -3.0981    0.0000 C   0  0  0  0  0  0  0  0  0  0  0  0
   13.2583   -2.0981    0.0000 C   0  0  0  0  0  0  0  0  0  0  0  0
    8.4282    1.7321    0.0000 C   0  0  0  0  0  0  0  0  0  0  0  0
    6.3301   -3.0981    0.0000 C   0  0  0  0  0  0  0  0  0  0  0  0
   11.5263   -2.0981    0.0000 C   0  0  0  0  0  0  0  0  0  0  0  0
    8.4282    0.0000    0.0000 C   0  0  0  0  0  0  0  0  0  0  0  0
    5.4641   -1.5981    0.0000 C   0  0  0  0  0  0  0  0  0  0  0  0
   12.3923   -3.5981    0.0000 C   0  0  0  0  0  0  0  0  0  0  0  0
    9.9282    0.8660    0.0000 C   0  0  0  0  0  0  0  0  0  0  0  0
    3.7321   -2.5981    0.0000 C   0  0  0  0  0  0  0  0  0  0  0  0
   14.1244   -2.5981    0.0000 C   0  0  0  0  0  0  0  0  0  0  0  0
    8.9282    2.5981    0.0000 C   0  0  0  0  0  0  0  0  0  0  0  0
    2.8660   -3.0981    0.0000 C   0  0  0  0  0  0  0  0  0  0  0  0
   14.9904   -2.0981    0.0000 C   0  0  0  0  0  0  0  0  0  0  0  0
    8.4282    3.4641    0.0000 C   0  0  0  0  0  0  0  0  0  0  0  0
    4.5981   -1.0981    0.0000 C   0  0  0  0  0  0  0  0  0  0  0  0
   13.2583   -4.0981    0.0000 C   0  0  0  0  0  0  0  0  0  0  0  0
   10.4282    1.7321    0.0000 C   0  0  0  0  0  0  0  0  0  0  0  0
    2.0000   -2.5981    0.0000 C   0  0  0  0  0  0  0  0  0  0  0  0
   15.8564   -2.5981    0.0000 C   0  0  0  0  0  0  0  0  0  0  0  0
    8.9282    4.3301    0.0000 C   0  0  0  0  0  0  0  0  0  0  0  0
    9.9032   -3.8626    0.0000 H   0  0  0  0  0  0  0  0  0  0  0  0
    9.9032   -3.0656    0.0000 H   0  0  0  0  0  0  0  0  0  0  0  0
    7.6637   -3.5730    0.0000 H   0  0  0  0  0  0  0  0  0  0  0  0
    8.4607   -3.5730    0.0000 H   0  0  0  0  0  0  0  0  0  0  0  0
   10.1928   -1.6231    0.0000 H   0  0  0  0  0  0  0  0  0  0  0  0
    9.3957   -1.6231    0.0000 H   0  0  0  0  0  0  0  0  0  0  0  0
    7.9533   -1.3335    0.0000 H   0  0  0  0  0  0  0  0  0  0  0  0
    7.9533   -2.1306    0.0000 H   0  0  0  0  0  0  0  0  0  0  0  0
    8.3913   -4.0201    0.0000 H   0  0  0  0  0  0  0  0  0  0  0  0
    8.6182   -4.8671    0.0000 H   0  0  0  0  0  0  0  0  0  0  0  0
    9.4651   -4.6401    0.0000 H   0  0  0  0  0  0  0  0  0  0  0  0
    5.4641   -3.2181    0.0000 H   0  0  0  0  0  0  0  0  0  0  0  0
   11.8554   -2.9081    0.0000 H   0  0  0  0  0  0  0  0  0  0  0  0
    9.2382    0.3291    0.0000 H   0  0  0  0  0  0  0  0  0  0  0  0
    4.1996   -3.5730    0.0000 H   0  0  0  0  0  0  0  0  0  0  0  0
    4.9966   -3.5730    0.0000 H   0  0  0  0  0  0  0  0  0  0  0  0
   13.6569   -1.6231    0.0000 H   0  0  0  0  0  0  0  0  0  0  0  0
   12.8598   -1.6231    0.0000 H   0  0  0  0  0  0  0  0  0  0  0  0
    7.9533    2.1306    0.0000 H   0  0  0  0  0  0  0  0  0  0  0  0
    7.9533    1.3335    0.0000 H   0  0  0  0  0  0  0  0  0  0  0  0
    6.0747   -1.7057    0.0000 H   0  0  0  0  0  0  0  0  0  0  0  0
    5.6762   -1.0155    0.0000 H   0  0  0  0  0  0  0  0  0  0  0  0
   11.7817   -3.4904    0.0000 H   0  0  0  0  0  0  0  0  0  0  0  0
   12.1803   -4.1807    0.0000 H   0  0  0  0  0  0  0  0  0  0  0  0
    9.8205    0.2554    0.0000 H   0  0  0  0  0  0  0  0  0  0  0  0
   10.5108    0.6540    0.0000 H   0  0  0  0  0  0  0  0  0  0  0  0
    4.1306   -2.1231    0.0000 H   0  0  0  0  0  0  0  0  0  0  0  0
    3.3335   -2.1231    0.0000 H   0  0  0  0  0  0  0  0  0  0  0  0
   13.7258   -3.0730    0.0000 H   0  0  0  0  0  0  0  0  0  0  0  0
   14.5229   -3.0730    0.0000 H   0  0  0  0  0  0  0  0  0  0  0  0
    9.4032    2.1996    0.0000 H   0  0  0  0  0  0  0  0  0  0  0  0
    9.4032    2.9966    0.0000 H   0  0  0  0  0  0  0  0  0  0  0  0
    2.4675   -3.5730    0.0000 H   0  0  0  0  0  0  0  0  0  0  0  0
    3.2646   -3.5730    0.0000 H   0  0  0  0  0  0  0  0  0  0  0  0
   15.3889   -1.6231    0.0000 H   0  0  0  0  0  0  0  0  0  0  0  0
   14.5919   -1.6231    0.0000 H   0  0  0  0  0  0  0  0  0  0  0  0
    7.9533    3.8626    0.0000 H   0  0  0  0  0  0  0  0  0  0  0  0
    7.9533    3.0656    0.0000 H   0  0  0  0  0  0  0  0  0  0  0  0
    4.9081   -0.5611    0.0000 H   0  0  0  0  0  0  0  0  0  0  0  0
    4.0611   -0.7881    0.0000 H   0  0  0  0  0  0  0  0  0  0  0  0
    4.2881   -1.6350    0.0000 H   0  0  0  0  0  0  0  0  0  0  0  0
   12.9483   -4.6350    0.0000 H   0  0  0  0  0  0  0  0  0  0  0  0
   13.7953   -4.4081    0.0000 H   0  0  0  0  0  0  0  0  0  0  0  0
   13.5683   -3.5611    0.0000 H   0  0  0  0  0  0  0  0  0  0  0  0
   10.9651    1.4221    0.0000 H   0  0  0  0  0  0  0  0  0  0  0  0
   10.7382    2.2690    0.0000 H   0  0  0  0  0  0  0  0  0  0  0  0
    9.8913    2.0421    0.0000 H   0  0  0  0  0  0  0  0  0  0  0  0
    2.3100   -2.0611    0.0000 H   0  0  0  0  0  0  0  0  0  0  0  0
    1.4631   -2.2881    0.0000 H   0  0  0  0  0  0  0  0  0  0  0  0
    1.6900   -3.1350    0.0000 H   0  0  0  0  0  0  0  0  0  0  0  0
   15.5464   -3.1350    0.0000 H   0  0  0  0  0  0  0  0  0  0  0  0
   16.3933   -2.9081    0.0000 H   0  0  0  0  0  0  0  0  0  0  0  0
   16.1664   -2.0611    0.0000 H   0  0  0  0  0  0  0  0  0  0  0  0
    9.4651    4.0201    0.0000 H   0  0  0  0  0  0  0  0  0  0  0  0
    9.2382    4.8671    0.0000 H   0  0  0  0  0  0  0  0  0  0  0  0
    8.3913    4.6401    0.0000 H   0  0  0  0  0  0  0  0  0  0  0  0
  1  9  1  0  0  0  0
  1 19  1  0  0  0  0
  2 10  1  0  0  0  0
  2 20  1  0  0  0  0
  3 11  1  0  0  0  0
  3 21  1  0  0  0  0
  4 19  2  0  0  0  0
  5 20  2  0  0  0  0
  6 21  2  0  0  0  0
  7  8  1  0  0  0  0
  7  9  1  0  0  0  0
  7 10  1  0  0  0  0
  7 11  1  0  0  0  0
  8 12  1  0  0  0  0
  8 37  1  0  0  0  0
  8 38  1  0  0  0  0
  9 39  1  0  0  0  0
  9 40  1  0  0  0  0
 10 41  1  0  0  0  0
 10 42  1  0  0  0  0
 11 43  1  0  0  0  0
 11 44  1  0  0  0  0
 12 45  1  0  0  0  0
 12 46  1  0  0  0  0
 12 47  1  0  0  0  0
 13 16  1  0  0  0  0
 13 19  1  0  0  0  0
 13 22  1  0  0  0  0
 13 48  1  0  0  0  0
 14 17  1  0  0  0  0
 14 20  1  0  0  0  0
 14 23  1  0  0  0  0
 14 49  1  0  0  0  0
 15 18  1  0  0  0  0
 15 21  1  0  0  0  0
 15 24  1  0  0  0  0
 15 50  1  0  0  0  0
 16 25  1  0  0  0  0
 16 51  1  0  0  0  0
 16 52  1  0  0  0  0
 17 26  1  0  0  0  0
 17 53  1  0  0  0  0
 17 54  1  0  0  0  0
 18 27  1  0  0  0  0
 18 55  1  0  0  0  0
 18 56  1  0  0  0  0
 22 31  1  0  0  0  0
 22 57  1  0  0  0  0
 22 58  1  0  0  0  0
 23 32  1  0  0  0  0
 23 59  1  0  0  0  0
 23 60  1  0  0  0  0
 24 33  1  0  0  0  0
 24 61  1  0  0  0  0
 24 62  1  0  0  0  0
 25 28  1  0  0  0  0
 25 63  1  0  0  0  0
 25 64  1  0  0  0  0
 26 29  1  0  0  0  0
 26 65  1  0  0  0  0
 26 66  1  0  0  0  0
 27 30  1  0  0  0  0
 27 67  1  0  0  0  0
 27 68  1  0  0  0  0
 28 34  1  0  0  0  0
 28 69  1  0  0  0  0
 28 70  1  0  0  0  0
 29 35  1  0  0  0  0
 29 71  1  0  0  0  0
 29 72  1  0  0  0  0
 30 36  1  0  0  0  0
 30 73  1  0  0  0  0
 30 74  1  0  0  0  0
 31 75  1  0  0  0  0
 31 76  1  0  0  0  0
 31 77  1  0  0  0  0
 32 78  1  0  0  0  0
 32 79  1  0  0  0  0
 32 80  1  0  0  0  0
 33 81  1  0  0  0  0
 33 82  1  0  0  0  0
 33 83  1  0  0  0  0
 34 84  1  0  0  0  0
 34 85  1  0  0  0  0
 34 86  1  0  0  0  0
 35 87  1  0  0  0  0
 35 88  1  0  0  0  0
 35 89  1  0  0  0  0
 36 90  1  0  0  0  0
 36 91  1  0  0  0  0
 36 92  1  0  0  0  0
M  END
> <PUBCHEM_COMPOUND_CID>
14366844

> <PUBCHEM_COMPOUND_CANONICALIZED>
1

> <PUBCHEM_CACTVS_COMPLEXITY>
523

> <PUBCHEM_CACTVS_HBOND_ACCEPTOR>
6

> <PUBCHEM_CACTVS_HBOND_DONOR>
0

> <PUBCHEM_CACTVS_ROTATABLE_BOND>
25

> <PUBCHEM_CACTVS_SUBSKEYS>
AAADcfB4OAAAAAAAAAAAAAAAAAAAAAAAAAAAAAAAAAAAAAAAAAAAGgAAAAAADwCggAICCAAABAAIAACQCAAAAAAAAAAAAAEAAAAAABIAAAACAAAFAAAAAAGIyAAPAAAAAAAAAAAAAAAAAAAAAAAAAAAAAA==

> <PUBCHEM_IUPAC_OPENEYE_NAME>
2,2-bis(2-ethylhexanoyloxymethyl)butyl 2-ethylhexanoate

> <PUBCHEM_IUPAC_CAS_NAME>
2-ethylhexanoic acid 2,2-bis[(2-ethyl-1-oxohexoxy)methyl]butyl ester

> <PUBCHEM_IUPAC_NAME_MARKUP>
2,2-bis(2-ethylhexanoyloxymethyl)butyl 2-ethylhexanoate

> <PUBCHEM_IUPAC_NAME>
2,2-bis(2-ethylhexanoyloxymethyl)butyl 2-ethylhexanoate

> <PUBCHEM_IUPAC_SYSTEMATIC_NAME>
2,2-bis(2-ethylhexanoyloxymethyl)butyl 2-ethylhexanoate

> <PUBCHEM_IUPAC_TRADITIONAL_NAME>
2-ethylhexanoic acid 2,2-bis(2-ethylhexanoyloxymethyl)butyl ester

> <PUBCHEM_IUPAC_INCHI>
InChI=1S/C30H56O6/c1-8-15-18-24(11-4)27(31)34-21-30(14-7,22-35-28(32)25(12-5)19-16-9-2)23-36-29(33)26(13-6)20-17-10-3/h24-26H,8-23H2,1-7H3

> <PUBCHEM_IUPAC_INCHIKEY>
QOOJEEZYYXGPAO-UHFFFAOYSA-N

> <PUBCHEM_XLOGP3_AA>
9.4

> <PUBCHEM_EXACT_MASS>
512.40768950

> <PUBCHEM_MOLECULAR_FORMULA>
C30H56O6

> <PUBCHEM_MOLECULAR_WEIGHT>
512.8

> <PUBCHEM_SMILES>
CCCCC(CC)C(=O)OCC(CC)(COC(=O)C(CC)CCCC)COC(=O)C(CC)CCCC

> <PUBCHEM_CONNECTIVITY_SMILES>
CCCCC(CC)C(=O)OCC(CC)(COC(=O)C(CC)CCCC)COC(=O)C(CC)CCCC

> <PUBCHEM_CACTVS_TPSA>
78.9

> <PUBCHEM_MONOISOTOPIC_WEIGHT>
512.40768950

> <PUBCHEM_TOTAL_CHARGE>
0

> <PUBCHEM_HEAVY_ATOM_COUNT>
36

> <PUBCHEM_ATOM_DEF_STEREO_COUNT>
0

> <PUBCHEM_ATOM_UDEF_STEREO_COUNT>
3

> <PUBCHEM_BOND_DEF_STEREO_COUNT>
0

> <PUBCHEM_BOND_UDEF_STEREO_COUNT>
0

> <PUBCHEM_ISOTOPIC_ATOM_COUNT>
0

> <PUBCHEM_COMPONENT_COUNT>
1

> <PUBCHEM_CACTVS_TAUTO_COUNT>
-1

> <PUBCHEM_COORDINATE_TYPE>
1
5
255

> <PUBCHEM_BONDANNOTATIONS>
13  22  3
14  23  3
15  24  3

$$$$
