14422805
  -OEChem-05122608472D

116117  0     0  0  0  0  0  0999 V2000
   12.3923    1.2500    0.0000 S   0  0  0  0  0  0  0  0  0  0  0  0
    8.0622   -1.2500    0.0000 S   0  0  0  0  0  0  0  0  0  0  0  0
   17.5885   -7.7500    0.0000 S   0  0  0  0  0  0  0  0  0  0  0  0
    2.8660    7.7500    0.0000 S   0  0  0  0  0  0  0  0  0  0  0  0
    7.1962   -2.7500    0.0000 Na  0  3  0  0  0  0  0  0  0  0  0  0
    2.0000    9.2500    0.0000 Na  0  3  0  0  0  0  0  0  0  0  0  0
   18.4545   -9.2500    0.0000 Na  0  3  0  0  0  0  0  0  0  0  0  0
   13.2583    2.7500    0.0000 Na  0  3  0  0  0  0  0  0  0  0  0  0
   11.5263   -7.2500    0.0000 O   0  0  0  0  0  0  0  0  0  0  0  0
    9.7942   -4.2500    0.0000 O   0  0  0  0  0  0  0  0  0  0  0  0
    8.9282    7.2500    0.0000 O   0  0  0  0  0  0  0  0  0  0  0  0
   10.6603    4.2500    0.0000 O   0  0  0  0  0  0  0  0  0  0  0  0
   12.3923    2.2500    0.0000 O   0  5  0  0  0  0  0  0  0  0  0  0
    8.0622   -2.2500    0.0000 O   0  5  0  0  0  0  0  0  0  0  0  0
   13.3923    1.2500    0.0000 O   0  0  0  0  0  0  0  0  0  0  0  0
   11.3923    1.2500    0.0000 O   0  0  0  0  0  0  0  0  0  0  0  0
    7.0622   -1.2500    0.0000 O   0  0  0  0  0  0  0  0  0  0  0  0
    9.0622   -1.2500    0.0000 O   0  0  0  0  0  0  0  0  0  0  0  0
   18.4545   -8.2500    0.0000 O   0  5  0  0  0  0  0  0  0  0  0  0
    2.0000    8.2500    0.0000 O   0  5  0  0  0  0  0  0  0  0  0  0
   17.0885   -8.6160    0.0000 O   0  0  0  0  0  0  0  0  0  0  0  0
   18.0885   -6.8840    0.0000 O   0  0  0  0  0  0  0  0  0  0  0  0
    3.3660    8.6160    0.0000 O   0  0  0  0  0  0  0  0  0  0  0  0
    2.3660    6.8840    0.0000 O   0  0  0  0  0  0  0  0  0  0  0  0
   12.3923   -4.7500    0.0000 N   0  0  0  0  0  0  0  0  0  0  0  0
    8.0622    4.7500    0.0000 N   0  0  0  0  0  0  0  0  0  0  0  0
   14.1244   -1.7500    0.0000 N   0  0  0  0  0  0  0  0  0  0  0  0
    6.3301    1.7500    0.0000 N   0  0  0  0  0  0  0  0  0  0  0  0
   13.2583   -3.2500    0.0000 N   0  0  0  0  0  0  0  0  0  0  0  0
    7.1962    3.2500    0.0000 N   0  0  0  0  0  0  0  0  0  0  0  0
   14.1244   -4.7500    0.0000 N   0  0  0  0  0  0  0  0  0  0  0  0
    6.3301    4.7500    0.0000 N   0  0  0  0  0  0  0  0  0  0  0  0
   14.9904   -3.2500    0.0000 N   0  0  0  0  0  0  0  0  0  0  0  0
    5.4641    3.2500    0.0000 N   0  0  0  0  0  0  0  0  0  0  0  0
   15.8564   -4.7500    0.0000 N   0  0  0  0  0  0  0  0  0  0  0  0
    4.5981    4.7500    0.0000 N   0  0  0  0  0  0  0  0  0  0  0  0
   12.3923   -5.7500    0.0000 C   0  0  0  0  0  0  0  0  0  0  0  0
   11.5263   -4.2500    0.0000 C   0  0  0  0  0  0  0  0  0  0  0  0
    8.0622    5.7500    0.0000 C   0  0  0  0  0  0  0  0  0  0  0  0
    8.9282    4.2500    0.0000 C   0  0  0  0  0  0  0  0  0  0  0  0
   11.5263   -0.2500    0.0000 C   0  0  0  0  0  0  0  0  0  0  0  0
    8.9282    0.2500    0.0000 C   0  0  0  0  0  0  0  0  0  0  0  0
   13.2583   -4.2500    0.0000 C   0  0  0  0  0  0  0  0  0  0  0  0
    7.1962    4.2500    0.0000 C   0  0  0  0  0  0  0  0  0  0  0  0
   12.3923    0.2500    0.0000 C   0  0  0  0  0  0  0  0  0  0  0  0
    8.0622   -0.2500    0.0000 C   0  0  0  0  0  0  0  0  0  0  0  0
   13.2583   -1.2500    0.0000 C   0  0  0  0  0  0  0  0  0  0  0  0
    7.1962    1.2500    0.0000 C   0  0  0  0  0  0  0  0  0  0  0  0
   13.2583   -0.2500    0.0000 C   0  0  0  0  0  0  0  0  0  0  0  0
    7.1962    0.2500    0.0000 C   0  0  0  0  0  0  0  0  0  0  0  0
   11.5263   -6.2500    0.0000 C   0  0  0  0  0  0  0  0  0  0  0  0
   10.6603   -4.7500    0.0000 C   0  0  0  0  0  0  0  0  0  0  0  0
    8.9282    6.2500    0.0000 C   0  0  0  0  0  0  0  0  0  0  0  0
    9.7942    4.7500    0.0000 C   0  0  0  0  0  0  0  0  0  0  0  0
   10.6603    0.2500    0.0000 C   0  0  0  0  0  0  0  0  0  0  0  0
    9.7942   -0.2500    0.0000 C   0  0  0  0  0  0  0  0  0  0  0  0
   11.5263   -1.2500    0.0000 C   0  0  0  0  0  0  0  0  0  0  0  0
    8.9282    1.2500    0.0000 C   0  0  0  0  0  0  0  0  0  0  0  0
   12.3923   -1.7500    0.0000 C   0  0  0  0  0  0  0  0  0  0  0  0
    8.0622    1.7500    0.0000 C   0  0  0  0  0  0  0  0  0  0  0  0
   14.1244   -2.7500    0.0000 C   0  0  0  0  0  0  0  0  0  0  0  0
    6.3301    2.7500    0.0000 C   0  0  0  0  0  0  0  0  0  0  0  0
   14.9904   -4.2500    0.0000 C   0  0  0  0  0  0  0  0  0  0  0  0
    5.4641    4.2500    0.0000 C   0  0  0  0  0  0  0  0  0  0  0  0
   15.8564   -5.7500    0.0000 C   0  0  0  0  0  0  0  0  0  0  0  0
    4.5981    5.7500    0.0000 C   0  0  0  0  0  0  0  0  0  0  0  0
   16.7224   -6.2500    0.0000 C   0  0  0  0  0  0  0  0  0  0  0  0
    3.7321    6.2500    0.0000 C   0  0  0  0  0  0  0  0  0  0  0  0
   16.7224   -7.2500    0.0000 C   0  0  0  0  0  0  0  0  0  0  0  0
    3.7321    7.2500    0.0000 C   0  0  0  0  0  0  0  0  0  0  0  0
   14.9904   -6.2500    0.0000 C   0  0  0  0  0  0  0  0  0  0  0  0
    5.4641    6.2500    0.0000 C   0  0  0  0  0  0  0  0  0  0  0  0
   15.8564   -7.7500    0.0000 C   0  0  0  0  0  0  0  0  0  0  0  0
    4.5981    7.7500    0.0000 C   0  0  0  0  0  0  0  0  0  0  0  0
   14.9904   -7.2500    0.0000 C   0  0  0  0  0  0  0  0  0  0  0  0
    5.4641    7.2500    0.0000 C   0  0  0  0  0  0  0  0  0  0  0  0
   12.6044   -6.3326    0.0000 H   0  0  0  0  0  0  0  0  0  0  0  0
   13.0029   -5.6423    0.0000 H   0  0  0  0  0  0  0  0  0  0  0  0
   11.9248   -3.7751    0.0000 H   0  0  0  0  0  0  0  0  0  0  0  0
   11.1278   -3.7751    0.0000 H   0  0  0  0  0  0  0  0  0  0  0  0
    7.8501    6.3326    0.0000 H   0  0  0  0  0  0  0  0  0  0  0  0
    7.4516    5.6423    0.0000 H   0  0  0  0  0  0  0  0  0  0  0  0
    8.5297    3.7751    0.0000 H   0  0  0  0  0  0  0  0  0  0  0  0
    9.3267    3.7751    0.0000 H   0  0  0  0  0  0  0  0  0  0  0  0
   13.7953    0.0600    0.0000 H   0  0  0  0  0  0  0  0  0  0  0  0
    6.6592   -0.0600    0.0000 H   0  0  0  0  0  0  0  0  0  0  0  0
   11.3142   -5.6674    0.0000 H   0  0  0  0  0  0  0  0  0  0  0  0
   10.9157   -6.3577    0.0000 H   0  0  0  0  0  0  0  0  0  0  0  0
   10.2617   -5.2250    0.0000 H   0  0  0  0  0  0  0  0  0  0  0  0
   11.0588   -5.2250    0.0000 H   0  0  0  0  0  0  0  0  0  0  0  0
    9.1403    5.6674    0.0000 H   0  0  0  0  0  0  0  0  0  0  0  0
    9.5388    6.3577    0.0000 H   0  0  0  0  0  0  0  0  0  0  0  0
   10.1928    5.2250    0.0000 H   0  0  0  0  0  0  0  0  0  0  0  0
    9.3957    5.2250    0.0000 H   0  0  0  0  0  0  0  0  0  0  0  0
   10.6603    0.8700    0.0000 H   0  0  0  0  0  0  0  0  0  0  0  0
    9.7942   -0.8700    0.0000 H   0  0  0  0  0  0  0  0  0  0  0  0
   10.9893   -1.5600    0.0000 H   0  0  0  0  0  0  0  0  0  0  0  0
    9.4651    1.5600    0.0000 H   0  0  0  0  0  0  0  0  0  0  0  0
   12.3923   -2.3700    0.0000 H   0  0  0  0  0  0  0  0  0  0  0  0
    8.0622    2.3700    0.0000 H   0  0  0  0  0  0  0  0  0  0  0  0
   14.6613   -1.4400    0.0000 H   0  0  0  0  0  0  0  0  0  0  0  0
    5.7932    1.4400    0.0000 H   0  0  0  0  0  0  0  0  0  0  0  0
   16.3933   -4.4400    0.0000 H   0  0  0  0  0  0  0  0  0  0  0  0
    4.0611    4.4400    0.0000 H   0  0  0  0  0  0  0  0  0  0  0  0
   10.9893   -7.5600    0.0000 H   0  0  0  0  0  0  0  0  0  0  0  0
    9.2573   -4.5600    0.0000 H   0  0  0  0  0  0  0  0  0  0  0  0
    9.4651    7.5600    0.0000 H   0  0  0  0  0  0  0  0  0  0  0  0
   11.1972    4.5600    0.0000 H   0  0  0  0  0  0  0  0  0  0  0  0
   17.2594   -5.9400    0.0000 H   0  0  0  0  0  0  0  0  0  0  0  0
    3.1951    5.9400    0.0000 H   0  0  0  0  0  0  0  0  0  0  0  0
   14.4534   -5.9400    0.0000 H   0  0  0  0  0  0  0  0  0  0  0  0
    6.0010    5.9400    0.0000 H   0  0  0  0  0  0  0  0  0  0  0  0
   15.8564   -8.3700    0.0000 H   0  0  0  0  0  0  0  0  0  0  0  0
    4.5981    8.3700    0.0000 H   0  0  0  0  0  0  0  0  0  0  0  0
   14.4534   -7.5600    0.0000 H   0  0  0  0  0  0  0  0  0  0  0  0
    6.0010    7.5600    0.0000 H   0  0  0  0  0  0  0  0  0  0  0  0
  1 13  1  0  0  0  0
  1 15  2  0  0  0  0
  1 16  2  0  0  0  0
  1 45  1  0  0  0  0
  2 14  1  0  0  0  0
  2 17  2  0  0  0  0
  2 18  2  0  0  0  0
  2 46  1  0  0  0  0
  3 19  1  0  0  0  0
  3 21  2  0  0  0  0
  3 22  2  0  0  0  0
  3 69  1  0  0  0  0
  4 20  1  0  0  0  0
  4 23  2  0  0  0  0
  4 24  2  0  0  0  0
  4 70  1  0  0  0  0
  9 51  1  0  0  0  0
  9105  1  0  0  0  0
 10 52  1  0  0  0  0
 10106  1  0  0  0  0
 11 53  1  0  0  0  0
 11107  1  0  0  0  0
 12 54  1  0  0  0  0
 12108  1  0  0  0  0
 25 37  1  0  0  0  0
 25 38  1  0  0  0  0
 25 43  1  0  0  0  0
 26 39  1  0  0  0  0
 26 40  1  0  0  0  0
 26 44  1  0  0  0  0
 27 47  1  0  0  0  0
 27 61  1  0  0  0  0
 27101  1  0  0  0  0
 28 48  1  0  0  0  0
 28 62  1  0  0  0  0
 28102  1  0  0  0  0
 29 43  1  0  0  0  0
 29 61  2  0  0  0  0
 30 44  1  0  0  0  0
 30 62  2  0  0  0  0
 31 43  2  0  0  0  0
 31 63  1  0  0  0  0
 32 44  2  0  0  0  0
 32 64  1  0  0  0  0
 33 61  1  0  0  0  0
 33 63  2  0  0  0  0
 34 62  1  0  0  0  0
 34 64  2  0  0  0  0
 35 63  1  0  0  0  0
 35 65  1  0  0  0  0
 35103  1  0  0  0  0
 36 64  1  0  0  0  0
 36 66  1  0  0  0  0
 36104  1  0  0  0  0
 37 51  1  0  0  0  0
 37 77  1  0  0  0  0
 37 78  1  0  0  0  0
 38 52  1  0  0  0  0
 38 79  1  0  0  0  0
 38 80  1  0  0  0  0
 39 53  1  0  0  0  0
 39 81  1  0  0  0  0
 39 82  1  0  0  0  0
 40 54  1  0  0  0  0
 40 83  1  0  0  0  0
 40 84  1  0  0  0  0
 41 45  2  0  0  0  0
 41 55  1  0  0  0  0
 41 57  1  0  0  0  0
 42 46  2  0  0  0  0
 42 56  1  0  0  0  0
 42 58  1  0  0  0  0
 45 49  1  0  0  0  0
 46 50  1  0  0  0  0
 47 49  2  0  0  0  0
 47 59  1  0  0  0  0
 48 50  2  0  0  0  0
 48 60  1  0  0  0  0
 49 85  1  0  0  0  0
 50 86  1  0  0  0  0
 51 87  1  0  0  0  0
 51 88  1  0  0  0  0
 52 89  1  0  0  0  0
 52 90  1  0  0  0  0
 53 91  1  0  0  0  0
 53 92  1  0  0  0  0
 54 93  1  0  0  0  0
 54 94  1  0  0  0  0
 55 56  2  0  0  0  0
 55 95  1  0  0  0  0
 56 96  1  0  0  0  0
 57 59  2  0  0  0  0
 57 97  1  0  0  0  0
 58 60  2  0  0  0  0
 58 98  1  0  0  0  0
 59 99  1  0  0  0  0
 60100  1  0  0  0  0
 65 67  2  0  0  0  0
 65 71  1  0  0  0  0
 66 68  2  0  0  0  0
 66 72  1  0  0  0  0
 67 69  1  0  0  0  0
 67109  1  0  0  0  0
 68 70  1  0  0  0  0
 68110  1  0  0  0  0
 69 73  2  0  0  0  0
 70 74  2  0  0  0  0
 71 75  2  0  0  0  0
 71111  1  0  0  0  0
 72 76  2  0  0  0  0
 72112  1  0  0  0  0
 73 75  1  0  0  0  0
 73113  1  0  0  0  0
 74 76  1  0  0  0  0
 74114  1  0  0  0  0
 75115  1  0  0  0  0
 76116  1  0  0  0  0
M  CHG  8   5   1   6   1   7   1   8   1  13  -1  14  -1  19  -1  20  -1
M  END
> <PUBCHEM_COMPOUND_CID>
14422805

> <PUBCHEM_COMPOUND_CANONICALIZED>
1

> <PUBCHEM_CACTVS_COMPLEXITY>
1960

> <PUBCHEM_CACTVS_HBOND_ACCEPTOR>
28

> <PUBCHEM_CACTVS_HBOND_DONOR>
8

> <PUBCHEM_CACTVS_ROTATABLE_BOND>
20

> <PUBCHEM_CACTVS_SUBSKEYS>
AAADcfB//jBwAAAAAAAAAAAAAAAAAAAAAAA8eMGCAAAAAAAB9AAAHgQQCAAADAjh2AYx0YfIEgKgAiRCZHDCAEkhAoAJiBgIZIiKOCLAmZGEIAxokALYyCcQgAAOCAAAACAEAAAQAAAAQAgAAAAAAAAAAA==

> <PUBCHEM_IUPAC_OPENEYE_NAME>
tetrasodium;5-[[4-[bis(2-hydroxyethyl)amino]-6-(3-sulfonatoanilino)-1,3,5-triazin-2-yl]amino]-2-[(E)-2-[4-[[4-[bis(2-hydroxyethyl)amino]-6-(3-sulfonatoanilino)-1,3,5-triazin-2-yl]amino]-2-sulfonato-phenyl]vinyl]benzenesulfonate

> <PUBCHEM_IUPAC_CAS_NAME>
tetrasodium;5-[[4-[bis(2-hydroxyethyl)amino]-6-(3-sulfonatoanilino)-1,3,5-triazin-2-yl]amino]-2-[(E)-2-[4-[[4-[bis(2-hydroxyethyl)amino]-6-(3-sulfonatoanilino)-1,3,5-triazin-2-yl]amino]-2-sulfonatophenyl]ethenyl]benzenesulfonate

> <PUBCHEM_IUPAC_NAME_MARKUP>
tetrasodium;5-[[4-[bis(2-hydroxyethyl)amino]-6-(3-sulfonatoanilino)-1,3,5-triazin-2-yl]amino]-2-[(<I>E</I>)-2-[4-[[4-[bis(2-hydroxyethyl)amino]-6-(3-sulfonatoanilino)-1,3,5-triazin-2-yl]amino]-2-sulfonatophenyl]ethenyl]benzenesulfonate

> <PUBCHEM_IUPAC_NAME>
tetrasodium;5-[[4-[bis(2-hydroxyethyl)amino]-6-(3-sulfonatoanilino)-1,3,5-triazin-2-yl]amino]-2-[(E)-2-[4-[[4-[bis(2-hydroxyethyl)amino]-6-(3-sulfonatoanilino)-1,3,5-triazin-2-yl]amino]-2-sulfonatophenyl]ethenyl]benzenesulfonate

> <PUBCHEM_IUPAC_SYSTEMATIC_NAME>
tetrasodium;5-[[4-[bis(2-hydroxyethyl)amino]-6-[(3-sulfonatophenyl)amino]-1,3,5-triazin-2-yl]amino]-2-[(E)-2-[4-[[4-[bis(2-hydroxyethyl)amino]-6-[(3-sulfonatophenyl)amino]-1,3,5-triazin-2-yl]amino]-2-sulfonato-phenyl]ethenyl]benzenesulfonate

> <PUBCHEM_IUPAC_TRADITIONAL_NAME>
tetrasodium;5-[[4-[bis(2-hydroxyethyl)amino]-6-(3-sulfonatoanilino)-s-triazin-2-yl]amino]-2-[(E)-2-[4-[[4-[bis(2-hydroxyethyl)amino]-6-(3-sulfonatoanilino)-s-triazin-2-yl]amino]-2-sulfonato-phenyl]vinyl]besylate

> <PUBCHEM_IUPAC_INCHI>
InChI=1S/C40H44N12O16S4.4Na/c53-17-13-51(14-18-54)39-47-35(41-27-3-1-5-31(21-27)69(57,58)59)45-37(49-39)43-29-11-9-25(33(23-29)71(63,64)65)7-8-26-10-12-30(24-34(26)72(66,67)68)44-38-46-36(48-40(50-38)52(15-19-55)16-20-56)42-28-4-2-6-32(22-28)70(60,61)62;;;;/h1-12,21-24,53-56H,13-20H2,(H,57,58,59)(H,60,61,62)(H,63,64,65)(H,66,67,68)(H2,41,43,45,47,49)(H2,42,44,46,48,50);;;;/q;4*+1/p-4/b8-7+;;;;

> <PUBCHEM_IUPAC_INCHIKEY>
FUFMEQTUGKXEQF-YZNHWISSSA-J

> <PUBCHEM_EXACT_MASS>
1164.1158851

> <PUBCHEM_MOLECULAR_FORMULA>
C40H40N12Na4O16S4

> <PUBCHEM_MOLECULAR_WEIGHT>
1165.0

> <PUBCHEM_SMILES>
C1=CC(=CC(=C1)S(=O)(=O)[O-])NC2=NC(=NC(=N2)N(CCO)CCO)NC3=CC(=C(C=C3)/C=C/C4=C(C=C(C=C4)NC5=NC(=NC(=N5)NC6=CC(=CC=C6)S(=O)(=O)[O-])N(CCO)CCO)S(=O)(=O)[O-])S(=O)(=O)[O-].[Na+].[Na+].[Na+].[Na+]

> <PUBCHEM_CONNECTIVITY_SMILES>
C1=CC(=CC(=C1)S(=O)(=O)[O-])NC2=NC(=NC(=N2)N(CCO)CCO)NC3=CC(=C(C=C3)C=CC4=C(C=C(C=C4)NC5=NC(=NC(=N5)NC6=CC(=CC=C6)S(=O)(=O)[O-])N(CCO)CCO)S(=O)(=O)[O-])S(=O)(=O)[O-].[Na+].[Na+].[Na+].[Na+]

> <PUBCHEM_CACTVS_TPSA>
475

> <PUBCHEM_MONOISOTOPIC_WEIGHT>
1164.1158851

> <PUBCHEM_TOTAL_CHARGE>
0

> <PUBCHEM_HEAVY_ATOM_COUNT>
76

> <PUBCHEM_ATOM_DEF_STEREO_COUNT>
0

> <PUBCHEM_ATOM_UDEF_STEREO_COUNT>
0

> <PUBCHEM_BOND_DEF_STEREO_COUNT>
1

> <PUBCHEM_BOND_UDEF_STEREO_COUNT>
0

> <PUBCHEM_ISOTOPIC_ATOM_COUNT>
0

> <PUBCHEM_COMPONENT_COUNT>
5

> <PUBCHEM_CACTVS_TAUTO_COUNT>
-1

> <PUBCHEM_COORDINATE_TYPE>
1
5
255

> <PUBCHEM_BONDANNOTATIONS>
29  43  8
29  61  8
30  44  8
30  62  8
31  43  8
31  63  8
32  44  8
32  64  8
33  61  8
33  63  8
34  62  8
34  64  8
41  45  8
41  57  8
42  46  8
42  58  8
45  49  8
46  50  8
47  49  8
47  59  8
48  50  8
48  60  8
57  59  8
58  60  8
65  67  8
65  71  8
66  68  8
66  72  8
67  69  8
68  70  8
69  73  8
70  74  8
71  75  8
72  76  8
73  75  8
74  76  8

$$$$
