14478
  -OEChem-05122609402D

 32 31  0     0  0  0  0  0  0999 V2000
    3.7320   -0.3170    0.0000 C   0  0  0  0  0  0  0  0  0  0  0  0
    4.5981    0.1830    0.0000 C   0  0  0  0  0  0  0  0  0  0  0  0
    5.4641   -0.3170    0.0000 C   0  0  0  0  0  0  0  0  0  0  0  0
    2.8660   -0.8170    0.0000 C   0  0  0  0  0  0  0  0  0  0  0  0
    6.3301    0.1830    0.0000 C   0  0  0  0  0  0  0  0  0  0  0  0
    3.2320    0.5490    0.0000 C   0  0  0  0  0  0  0  0  0  0  0  0
    4.2320   -1.1830    0.0000 C   0  0  0  0  0  0  0  0  0  0  0  0
    2.0000   -0.3170    0.0000 C   0  0  0  0  0  0  0  0  0  0  0  0
    7.1962   -0.3170    0.0000 C   0  0  0  0  0  0  0  0  0  0  0  0
    6.3301    1.1830    0.0000 C   0  0  0  0  0  0  0  0  0  0  0  0
    4.9966    0.6580    0.0000 H   0  0  0  0  0  0  0  0  0  0  0  0
    4.1996    0.6580    0.0000 H   0  0  0  0  0  0  0  0  0  0  0  0
    5.0656   -0.7919    0.0000 H   0  0  0  0  0  0  0  0  0  0  0  0
    5.8626   -0.7919    0.0000 H   0  0  0  0  0  0  0  0  0  0  0  0
    2.4675   -1.2919    0.0000 H   0  0  0  0  0  0  0  0  0  0  0  0
    3.2646   -1.2919    0.0000 H   0  0  0  0  0  0  0  0  0  0  0  0
    6.8671    0.4930    0.0000 H   0  0  0  0  0  0  0  0  0  0  0  0
    3.7690    0.8590    0.0000 H   0  0  0  0  0  0  0  0  0  0  0  0
    2.9220    1.0860    0.0000 H   0  0  0  0  0  0  0  0  0  0  0  0
    2.6951    0.2390    0.0000 H   0  0  0  0  0  0  0  0  0  0  0  0
    3.6951   -1.4930    0.0000 H   0  0  0  0  0  0  0  0  0  0  0  0
    4.5420   -1.7200    0.0000 H   0  0  0  0  0  0  0  0  0  0  0  0
    4.7690   -0.8730    0.0000 H   0  0  0  0  0  0  0  0  0  0  0  0
    2.3100    0.2199    0.0000 H   0  0  0  0  0  0  0  0  0  0  0  0
    1.4631   -0.0070    0.0000 H   0  0  0  0  0  0  0  0  0  0  0  0
    1.6900   -0.8539    0.0000 H   0  0  0  0  0  0  0  0  0  0  0  0
    6.8862   -0.8539    0.0000 H   0  0  0  0  0  0  0  0  0  0  0  0
    7.7331   -0.6270    0.0000 H   0  0  0  0  0  0  0  0  0  0  0  0
    7.5062    0.2199    0.0000 H   0  0  0  0  0  0  0  0  0  0  0  0
    6.9501    1.1830    0.0000 H   0  0  0  0  0  0  0  0  0  0  0  0
    6.3301    1.8030    0.0000 H   0  0  0  0  0  0  0  0  0  0  0  0
    5.7101    1.1830    0.0000 H   0  0  0  0  0  0  0  0  0  0  0  0
  1  2  1  0  0  0  0
  1  4  1  0  0  0  0
  1  6  1  0  0  0  0
  1  7  1  0  0  0  0
  2  3  1  0  0  0  0
  2 11  1  0  0  0  0
  2 12  1  0  0  0  0
  3  5  1  0  0  0  0
  3 13  1  0  0  0  0
  3 14  1  0  0  0  0
  4  8  1  0  0  0  0
  4 15  1  0  0  0  0
  4 16  1  0  0  0  0
  5  9  1  0  0  0  0
  5 10  1  0  0  0  0
  5 17  1  0  0  0  0
  6 18  1  0  0  0  0
  6 19  1  0  0  0  0
  6 20  1  0  0  0  0
  7 21  1  0  0  0  0
  7 22  1  0  0  0  0
  7 23  1  0  0  0  0
  8 24  1  0  0  0  0
  8 25  1  0  0  0  0
  8 26  1  0  0  0  0
  9 27  1  0  0  0  0
  9 28  1  0  0  0  0
  9 29  1  0  0  0  0
 10 30  1  0  0  0  0
 10 31  1  0  0  0  0
 10 32  1  0  0  0  0
M  END
> <PUBCHEM_COMPOUND_CID>
14478

> <PUBCHEM_COMPOUND_CANONICALIZED>
1

> <PUBCHEM_CACTVS_COMPLEXITY>
80

> <PUBCHEM_CACTVS_HBOND_ACCEPTOR>
0

> <PUBCHEM_CACTVS_HBOND_DONOR>
0

> <PUBCHEM_CACTVS_ROTATABLE_BOND>
4

> <PUBCHEM_CACTVS_SUBSKEYS>
AAADceBwAAAAAAAAAAAAAAAAAAAAAAAAAAAAAAAAAAAAAAAAAAAAGAAAAAAADwCAAAACAAAAAAAAAAAAAAAAAAAAAAAAAAAAAAAAAAIAAAAAAAAAAAAAAAEAgEAPAAAAAAAAAAAAAAAAAAAAAAAAAAAAAA==

> <PUBCHEM_IUPAC_OPENEYE_NAME>
2,5,5-trimethylheptane

> <PUBCHEM_IUPAC_CAS_NAME>
2,5,5-trimethylheptane

> <PUBCHEM_IUPAC_NAME_MARKUP>
2,5,5-trimethylheptane

> <PUBCHEM_IUPAC_NAME>
2,5,5-trimethylheptane

> <PUBCHEM_IUPAC_SYSTEMATIC_NAME>
2,5,5-trimethylheptane

> <PUBCHEM_IUPAC_TRADITIONAL_NAME>
2,5,5-trimethylheptane

> <PUBCHEM_IUPAC_INCHI>
InChI=1S/C10H22/c1-6-10(4,5)8-7-9(2)3/h9H,6-8H2,1-5H3

> <PUBCHEM_IUPAC_INCHIKEY>
SOYLPZSOEXZMLE-UHFFFAOYSA-N

> <PUBCHEM_XLOGP3_AA>
4.9

> <PUBCHEM_EXACT_MASS>
142.172150702

> <PUBCHEM_MOLECULAR_FORMULA>
C10H22

> <PUBCHEM_MOLECULAR_WEIGHT>
142.28

> <PUBCHEM_SMILES>
CCC(C)(C)CCC(C)C

> <PUBCHEM_CONNECTIVITY_SMILES>
CCC(C)(C)CCC(C)C

> <PUBCHEM_CACTVS_TPSA>
0

> <PUBCHEM_MONOISOTOPIC_WEIGHT>
142.172150702

> <PUBCHEM_TOTAL_CHARGE>
0

> <PUBCHEM_HEAVY_ATOM_COUNT>
10

> <PUBCHEM_ATOM_DEF_STEREO_COUNT>
0

> <PUBCHEM_ATOM_UDEF_STEREO_COUNT>
0

> <PUBCHEM_BOND_DEF_STEREO_COUNT>
0

> <PUBCHEM_BOND_UDEF_STEREO_COUNT>
0

> <PUBCHEM_ISOTOPIC_ATOM_COUNT>
0

> <PUBCHEM_COMPONENT_COUNT>
1

> <PUBCHEM_CACTVS_TAUTO_COUNT>
-1

> <PUBCHEM_COORDINATE_TYPE>
1
5
255

$$$$
