145224
  -OEChem-05122609132D

 56 56  0     0  0  0  0  0  0999 V2000
    8.0622    6.5950    0.0000 N   0  0  0  0  0  0  0  0  0  0  0  0
    5.4641   -1.9050    0.0000 C   0  0  0  0  0  0  0  0  0  0  0  0
    5.4641   -0.9050    0.0000 C   0  0  0  0  0  0  0  0  0  0  0  0
    4.5981   -2.4050    0.0000 C   0  0  0  0  0  0  0  0  0  0  0  0
    6.3301   -0.4050    0.0000 C   0  0  0  0  0  0  0  0  0  0  0  0
    4.5981   -3.4050    0.0000 C   0  0  0  0  0  0  0  0  0  0  0  0
    6.3301    0.5950    0.0000 C   0  0  0  0  0  0  0  0  0  0  0  0
    3.7321   -3.9050    0.0000 C   0  0  0  0  0  0  0  0  0  0  0  0
    7.1962    1.0950    0.0000 C   0  0  0  0  0  0  0  0  0  0  0  0
    3.7321   -4.9050    0.0000 C   0  0  0  0  0  0  0  0  0  0  0  0
    7.1962    2.0950    0.0000 C   0  0  0  0  0  0  0  0  0  0  0  0
    2.8660   -5.4050    0.0000 C   0  0  0  0  0  0  0  0  0  0  0  0
    8.0622    2.5950    0.0000 C   0  0  0  0  0  0  0  0  0  0  0  0
    2.8660   -6.4050    0.0000 C   0  0  0  0  0  0  0  0  0  0  0  0
    8.0622    3.5950    0.0000 C   0  0  0  0  0  0  0  0  0  0  0  0
    2.0000   -6.9050    0.0000 C   0  0  0  0  0  0  0  0  0  0  0  0
    8.9282    4.0950    0.0000 C   0  0  0  0  0  0  0  0  0  0  0  0
    7.1962    4.0950    0.0000 C   0  0  0  0  0  0  0  0  0  0  0  0
    8.9282    5.0950    0.0000 C   0  0  0  0  0  0  0  0  0  0  0  0
    7.1962    5.0950    0.0000 C   0  0  0  0  0  0  0  0  0  0  0  0
    8.0622    5.5950    0.0000 C   0  0  0  0  0  0  0  0  0  0  0  0
    5.6762   -2.4876    0.0000 H   0  0  0  0  0  0  0  0  0  0  0  0
    6.0747   -1.7973    0.0000 H   0  0  0  0  0  0  0  0  0  0  0  0
    5.2521   -0.3224    0.0000 H   0  0  0  0  0  0  0  0  0  0  0  0
    4.8535   -1.0127    0.0000 H   0  0  0  0  0  0  0  0  0  0  0  0
    4.3860   -1.8224    0.0000 H   0  0  0  0  0  0  0  0  0  0  0  0
    3.9875   -2.5127    0.0000 H   0  0  0  0  0  0  0  0  0  0  0  0
    6.5422   -0.9876    0.0000 H   0  0  0  0  0  0  0  0  0  0  0  0
    6.9407   -0.2973    0.0000 H   0  0  0  0  0  0  0  0  0  0  0  0
    4.8101   -3.9876    0.0000 H   0  0  0  0  0  0  0  0  0  0  0  0
    5.2087   -3.2973    0.0000 H   0  0  0  0  0  0  0  0  0  0  0  0
    6.1181    1.1776    0.0000 H   0  0  0  0  0  0  0  0  0  0  0  0
    5.7196    0.4873    0.0000 H   0  0  0  0  0  0  0  0  0  0  0  0
    3.5200   -3.3224    0.0000 H   0  0  0  0  0  0  0  0  0  0  0  0
    3.1215   -4.0127    0.0000 H   0  0  0  0  0  0  0  0  0  0  0  0
    7.4082    0.5124    0.0000 H   0  0  0  0  0  0  0  0  0  0  0  0
    7.8067    1.2027    0.0000 H   0  0  0  0  0  0  0  0  0  0  0  0
    3.9441   -5.4876    0.0000 H   0  0  0  0  0  0  0  0  0  0  0  0
    4.3426   -4.7973    0.0000 H   0  0  0  0  0  0  0  0  0  0  0  0
    6.9841    2.6776    0.0000 H   0  0  0  0  0  0  0  0  0  0  0  0
    6.5856    1.9873    0.0000 H   0  0  0  0  0  0  0  0  0  0  0  0
    2.6540   -4.8224    0.0000 H   0  0  0  0  0  0  0  0  0  0  0  0
    2.2554   -5.5127    0.0000 H   0  0  0  0  0  0  0  0  0  0  0  0
    8.2742    2.0124    0.0000 H   0  0  0  0  0  0  0  0  0  0  0  0
    8.6728    2.7027    0.0000 H   0  0  0  0  0  0  0  0  0  0  0  0
    3.0781   -6.9876    0.0000 H   0  0  0  0  0  0  0  0  0  0  0  0
    3.4766   -6.2973    0.0000 H   0  0  0  0  0  0  0  0  0  0  0  0
    1.6900   -6.3681    0.0000 H   0  0  0  0  0  0  0  0  0  0  0  0
    1.4631   -7.2150    0.0000 H   0  0  0  0  0  0  0  0  0  0  0  0
    2.3100   -7.4419    0.0000 H   0  0  0  0  0  0  0  0  0  0  0  0
    9.4651    3.7850    0.0000 H   0  0  0  0  0  0  0  0  0  0  0  0
    6.6592    3.7850    0.0000 H   0  0  0  0  0  0  0  0  0  0  0  0
    9.4651    5.4050    0.0000 H   0  0  0  0  0  0  0  0  0  0  0  0
    6.6592    5.4050    0.0000 H   0  0  0  0  0  0  0  0  0  0  0  0
    8.5991    6.9050    0.0000 H   0  0  0  0  0  0  0  0  0  0  0  0
    7.5252    6.9050    0.0000 H   0  0  0  0  0  0  0  0  0  0  0  0
  1 21  1  0  0  0  0
  1 55  1  0  0  0  0
  1 56  1  0  0  0  0
  2  3  1  0  0  0  0
  2  4  1  0  0  0  0
  2 22  1  0  0  0  0
  2 23  1  0  0  0  0
  3  5  1  0  0  0  0
  3 24  1  0  0  0  0
  3 25  1  0  0  0  0
  4  6  1  0  0  0  0
  4 26  1  0  0  0  0
  4 27  1  0  0  0  0
  5  7  1  0  0  0  0
  5 28  1  0  0  0  0
  5 29  1  0  0  0  0
  6  8  1  0  0  0  0
  6 30  1  0  0  0  0
  6 31  1  0  0  0  0
  7  9  1  0  0  0  0
  7 32  1  0  0  0  0
  7 33  1  0  0  0  0
  8 10  1  0  0  0  0
  8 34  1  0  0  0  0
  8 35  1  0  0  0  0
  9 11  1  0  0  0  0
  9 36  1  0  0  0  0
  9 37  1  0  0  0  0
 10 12  1  0  0  0  0
 10 38  1  0  0  0  0
 10 39  1  0  0  0  0
 11 13  1  0  0  0  0
 11 40  1  0  0  0  0
 11 41  1  0  0  0  0
 12 14  1  0  0  0  0
 12 42  1  0  0  0  0
 12 43  1  0  0  0  0
 13 15  1  0  0  0  0
 13 44  1  0  0  0  0
 13 45  1  0  0  0  0
 14 16  1  0  0  0  0
 14 46  1  0  0  0  0
 14 47  1  0  0  0  0
 15 17  2  0  0  0  0
 15 18  1  0  0  0  0
 16 48  1  0  0  0  0
 16 49  1  0  0  0  0
 16 50  1  0  0  0  0
 17 19  1  0  0  0  0
 17 51  1  0  0  0  0
 18 20  2  0  0  0  0
 18 52  1  0  0  0  0
 19 21  2  0  0  0  0
 19 53  1  0  0  0  0
 20 21  1  0  0  0  0
 20 54  1  0  0  0  0
M  END
> <PUBCHEM_COMPOUND_CID>
145224

> <PUBCHEM_COMPOUND_CANONICALIZED>
1

> <PUBCHEM_CACTVS_COMPLEXITY>
206

> <PUBCHEM_CACTVS_HBOND_ACCEPTOR>
1

> <PUBCHEM_CACTVS_HBOND_DONOR>
1

> <PUBCHEM_CACTVS_ROTATABLE_BOND>
13

> <PUBCHEM_CACTVS_SUBSKEYS>
AAADcfB6AAAAAAAAAAAAAAAAAAAAAAAAAAAwAAAAAAAAAAABAAAAHAAQAAAADAiBGAAywIBAAACAAiRCQACCAAAgAgAIiAAAZIgIICKAkZGAIABgkAAIyAcQgMAOCAAAAAAAAAAQAAAAAAAAAAAAAAAAAA==

> <PUBCHEM_IUPAC_OPENEYE_NAME>
4-tetradecylaniline

> <PUBCHEM_IUPAC_CAS_NAME>
4-tetradecylaniline

> <PUBCHEM_IUPAC_NAME_MARKUP>
4-tetradecylaniline

> <PUBCHEM_IUPAC_NAME>
4-tetradecylaniline

> <PUBCHEM_IUPAC_SYSTEMATIC_NAME>
4-tetradecylaniline

> <PUBCHEM_IUPAC_TRADITIONAL_NAME>
(4-myristylphenyl)amine

> <PUBCHEM_IUPAC_INCHI>
InChI=1S/C20H35N/c1-2-3-4-5-6-7-8-9-10-11-12-13-14-19-15-17-20(21)18-16-19/h15-18H,2-14,21H2,1H3

> <PUBCHEM_IUPAC_INCHIKEY>
WKYFQPQIOXXPGE-UHFFFAOYSA-N

> <PUBCHEM_XLOGP3>
8.3

> <PUBCHEM_EXACT_MASS>
289.276950121

> <PUBCHEM_MOLECULAR_FORMULA>
C20H35N

> <PUBCHEM_MOLECULAR_WEIGHT>
289.5

> <PUBCHEM_SMILES>
CCCCCCCCCCCCCCC1=CC=C(C=C1)N

> <PUBCHEM_CONNECTIVITY_SMILES>
CCCCCCCCCCCCCCC1=CC=C(C=C1)N

> <PUBCHEM_CACTVS_TPSA>
26

> <PUBCHEM_MONOISOTOPIC_WEIGHT>
289.276950121

> <PUBCHEM_TOTAL_CHARGE>
0

> <PUBCHEM_HEAVY_ATOM_COUNT>
21

> <PUBCHEM_ATOM_DEF_STEREO_COUNT>
0

> <PUBCHEM_ATOM_UDEF_STEREO_COUNT>
0

> <PUBCHEM_BOND_DEF_STEREO_COUNT>
0

> <PUBCHEM_BOND_UDEF_STEREO_COUNT>
0

> <PUBCHEM_ISOTOPIC_ATOM_COUNT>
0

> <PUBCHEM_COMPONENT_COUNT>
1

> <PUBCHEM_CACTVS_TAUTO_COUNT>
-1

> <PUBCHEM_COORDINATE_TYPE>
1
5
255

> <PUBCHEM_BONDANNOTATIONS>
15  17  8
15  18  8
17  19  8
18  20  8
19  21  8
20  21  8

$$$$
