14550408
  -OEChem-05122609052D

 56 55  0     0  0  0  0  0  0999 V2000
   10.6603    0.0000    0.0000 P   0  0  0  0  0  0  0  0  0  0  0  0
    5.8301    0.3660    0.0000 F   0  0  0  0  0  0  0  0  0  0  0  0
    6.8301   -1.3660    0.0000 F   0  0  0  0  0  0  0  0  0  0  0  0
   14.4904    1.3660    0.0000 F   0  0  0  0  0  0  0  0  0  0  0  0
   15.4904   -0.3660    0.0000 F   0  0  0  0  0  0  0  0  0  0  0  0
    4.9641   -0.1340    0.0000 F   0  0  0  0  0  0  0  0  0  0  0  0
    5.9641   -1.8660    0.0000 F   0  0  0  0  0  0  0  0  0  0  0  0
   15.3564    1.8660    0.0000 F   0  0  0  0  0  0  0  0  0  0  0  0
   16.3564    0.1340    0.0000 F   0  0  0  0  0  0  0  0  0  0  0  0
    6.6962    0.8660    0.0000 F   0  0  0  0  0  0  0  0  0  0  0  0
    7.6962   -0.8660    0.0000 F   0  0  0  0  0  0  0  0  0  0  0  0
   13.6244    0.8660    0.0000 F   0  0  0  0  0  0  0  0  0  0  0  0
   14.6244   -0.8660    0.0000 F   0  0  0  0  0  0  0  0  0  0  0  0
    4.0981   -0.6340    0.0000 F   0  0  0  0  0  0  0  0  0  0  0  0
    5.0981   -2.3660    0.0000 F   0  0  0  0  0  0  0  0  0  0  0  0
   16.2224    2.3660    0.0000 F   0  0  0  0  0  0  0  0  0  0  0  0
   17.2224    0.6340    0.0000 F   0  0  0  0  0  0  0  0  0  0  0  0
    3.2321   -1.1340    0.0000 F   0  0  0  0  0  0  0  0  0  0  0  0
    4.2321   -2.8660    0.0000 F   0  0  0  0  0  0  0  0  0  0  0  0
   18.0885    1.1340    0.0000 F   0  0  0  0  0  0  0  0  0  0  0  0
   17.0885    2.8660    0.0000 F   0  0  0  0  0  0  0  0  0  0  0  0
    2.0000   -3.0000    0.0000 F   0  0  0  0  0  0  0  0  0  0  0  0
    2.3660   -1.6340    0.0000 F   0  0  0  0  0  0  0  0  0  0  0  0
    3.3660   -3.3660    0.0000 F   0  0  0  0  0  0  0  0  0  0  0  0
   19.3205    3.0000    0.0000 F   0  0  0  0  0  0  0  0  0  0  0  0
   18.9545    1.6340    0.0000 F   0  0  0  0  0  0  0  0  0  0  0  0
   17.9545    3.3660    0.0000 F   0  0  0  0  0  0  0  0  0  0  0  0
    9.7942    0.5000    0.0000 O   0  0  0  0  0  0  0  0  0  0  0  0
   11.5263   -0.5000    0.0000 O   0  0  0  0  0  0  0  0  0  0  0  0
   10.1603   -0.8660    0.0000 O   0  0  0  0  0  0  0  0  0  0  0  0
   11.1603    0.8660    0.0000 O   0  0  0  0  0  0  0  0  0  0  0  0
    6.3301   -0.5000    0.0000 C   0  0  0  0  0  0  0  0  0  0  0  0
   14.9904    0.5000    0.0000 C   0  0  0  0  0  0  0  0  0  0  0  0
    5.4641   -1.0000    0.0000 C   0  0  0  0  0  0  0  0  0  0  0  0
   15.8564    1.0000    0.0000 C   0  0  0  0  0  0  0  0  0  0  0  0
    7.1962   -0.0000    0.0000 C   0  0  0  0  0  0  0  0  0  0  0  0
   14.1244    0.0000    0.0000 C   0  0  0  0  0  0  0  0  0  0  0  0
    4.5981   -1.5000    0.0000 C   0  0  0  0  0  0  0  0  0  0  0  0
   16.7224    1.5000    0.0000 C   0  0  0  0  0  0  0  0  0  0  0  0
    8.0622    0.5000    0.0000 C   0  0  0  0  0  0  0  0  0  0  0  0
   13.2583   -0.5000    0.0000 C   0  0  0  0  0  0  0  0  0  0  0  0
    3.7321   -2.0000    0.0000 C   0  0  0  0  0  0  0  0  0  0  0  0
   17.5885    2.0000    0.0000 C   0  0  0  0  0  0  0  0  0  0  0  0
    8.9282   -0.0000    0.0000 C   0  0  0  0  0  0  0  0  0  0  0  0
   12.3923    0.0000    0.0000 C   0  0  0  0  0  0  0  0  0  0  0  0
    2.8660   -2.5000    0.0000 C   0  0  0  0  0  0  0  0  0  0  0  0
   18.4545    2.5000    0.0000 C   0  0  0  0  0  0  0  0  0  0  0  0
    8.4607    0.9749    0.0000 H   0  0  0  0  0  0  0  0  0  0  0  0
    7.6637    0.9749    0.0000 H   0  0  0  0  0  0  0  0  0  0  0  0
   12.8598   -0.9749    0.0000 H   0  0  0  0  0  0  0  0  0  0  0  0
   13.6569   -0.9749    0.0000 H   0  0  0  0  0  0  0  0  0  0  0  0
    8.5297   -0.4749    0.0000 H   0  0  0  0  0  0  0  0  0  0  0  0
    9.3267   -0.4749    0.0000 H   0  0  0  0  0  0  0  0  0  0  0  0
   12.7908    0.4749    0.0000 H   0  0  0  0  0  0  0  0  0  0  0  0
   11.9938    0.4749    0.0000 H   0  0  0  0  0  0  0  0  0  0  0  0
   10.4703   -1.4030    0.0000 H   0  0  0  0  0  0  0  0  0  0  0  0
  1 28  1  0  0  0  0
  1 29  1  0  0  0  0
  1 30  1  0  0  0  0
  1 31  2  0  0  0  0
  2 32  1  0  0  0  0
  3 32  1  0  0  0  0
  4 33  1  0  0  0  0
  5 33  1  0  0  0  0
  6 34  1  0  0  0  0
  7 34  1  0  0  0  0
  8 35  1  0  0  0  0
  9 35  1  0  0  0  0
 10 36  1  0  0  0  0
 11 36  1  0  0  0  0
 12 37  1  0  0  0  0
 13 37  1  0  0  0  0
 14 38  1  0  0  0  0
 15 38  1  0  0  0  0
 16 39  1  0  0  0  0
 17 39  1  0  0  0  0
 18 42  1  0  0  0  0
 19 42  1  0  0  0  0
 20 43  1  0  0  0  0
 21 43  1  0  0  0  0
 22 46  1  0  0  0  0
 23 46  1  0  0  0  0
 24 46  1  0  0  0  0
 25 47  1  0  0  0  0
 26 47  1  0  0  0  0
 27 47  1  0  0  0  0
 28 44  1  0  0  0  0
 29 45  1  0  0  0  0
 30 56  1  0  0  0  0
 32 34  1  0  0  0  0
 32 36  1  0  0  0  0
 33 35  1  0  0  0  0
 33 37  1  0  0  0  0
 34 38  1  0  0  0  0
 35 39  1  0  0  0  0
 36 40  1  0  0  0  0
 37 41  1  0  0  0  0
 38 42  1  0  0  0  0
 39 43  1  0  0  0  0
 40 44  1  0  0  0  0
 40 48  1  0  0  0  0
 40 49  1  0  0  0  0
 41 45  1  0  0  0  0
 41 50  1  0  0  0  0
 41 51  1  0  0  0  0
 42 46  1  0  0  0  0
 43 47  1  0  0  0  0
 44 52  1  0  0  0  0
 44 53  1  0  0  0  0
 45 54  1  0  0  0  0
 45 55  1  0  0  0  0
M  END
> <PUBCHEM_COMPOUND_CID>
14550408

> <PUBCHEM_COMPOUND_CANONICALIZED>
1

> <PUBCHEM_CACTVS_COMPLEXITY>
1050

> <PUBCHEM_CACTVS_HBOND_ACCEPTOR>
30

> <PUBCHEM_CACTVS_HBOND_DONOR>
1

> <PUBCHEM_CACTVS_ROTATABLE_BOND>
16

> <PUBCHEM_CACTVS_SUBSKEYS>
AAADccB4OcIAAAAAAAAAAAAAAAAAAAAAAAAAAAAAAAAAAAAAAAAAGwAACCAACACggBIAAAAAARAAQAAAAIAAAAAAAAAAAAAAAAAAAAIAAAAAAAAEAAAAAAGAwKAAAAAAAAAAAAAAAAAAAAAAAAAAAAAAAA==

> <PUBCHEM_IUPAC_OPENEYE_NAME>
bis(3,3,4,4,5,5,6,6,7,7,8,8,8-tridecafluorooctyl) hydrogen phosphate

> <PUBCHEM_IUPAC_CAS_NAME>
bis(3,3,4,4,5,5,6,6,7,7,8,8,8-tridecafluorooctyl) hydrogen phosphate

> <PUBCHEM_IUPAC_NAME_MARKUP>
bis(3,3,4,4,5,5,6,6,7,7,8,8,8-tridecafluorooctyl) hydrogen phosphate

> <PUBCHEM_IUPAC_NAME>
bis(3,3,4,4,5,5,6,6,7,7,8,8,8-tridecafluorooctyl) hydrogen phosphate

> <PUBCHEM_IUPAC_SYSTEMATIC_NAME>
bis[3,3,4,4,5,5,6,6,7,7,8,8,8-tridecakis(fluoranyl)octyl] hydrogen phosphate

> <PUBCHEM_IUPAC_TRADITIONAL_NAME>
bis(3,3,4,4,5,5,6,6,7,7,8,8,8-tridecafluorooctyl) hydrogen phosphate

> <PUBCHEM_IUPAC_INCHI>
InChI=1S/C16H9F26O4P/c17-5(18,7(21,22)9(25,26)11(29,30)13(33,34)15(37,38)39)1-3-45-47(43,44)46-4-2-6(19,20)8(23,24)10(27,28)12(31,32)14(35,36)16(40,41)42/h1-4H2,(H,43,44)

> <PUBCHEM_IUPAC_INCHIKEY>
ZDYYWMSLMLTXDM-UHFFFAOYSA-N

> <PUBCHEM_XLOGP3_AA>
8.6

> <PUBCHEM_EXACT_MASS>
789.9823280

> <PUBCHEM_MOLECULAR_FORMULA>
C16H9F26O4P

> <PUBCHEM_MOLECULAR_WEIGHT>
790.17

> <PUBCHEM_SMILES>
C(COP(=O)(O)OCCC(C(C(C(C(C(F)(F)F)(F)F)(F)F)(F)F)(F)F)(F)F)C(C(C(C(C(C(F)(F)F)(F)F)(F)F)(F)F)(F)F)(F)F

> <PUBCHEM_CONNECTIVITY_SMILES>
C(COP(=O)(O)OCCC(C(C(C(C(C(F)(F)F)(F)F)(F)F)(F)F)(F)F)(F)F)C(C(C(C(C(C(F)(F)F)(F)F)(F)F)(F)F)(F)F)(F)F

> <PUBCHEM_CACTVS_TPSA>
55.8

> <PUBCHEM_MONOISOTOPIC_WEIGHT>
789.9823280

> <PUBCHEM_TOTAL_CHARGE>
0

> <PUBCHEM_HEAVY_ATOM_COUNT>
47

> <PUBCHEM_ATOM_DEF_STEREO_COUNT>
0

> <PUBCHEM_ATOM_UDEF_STEREO_COUNT>
0

> <PUBCHEM_BOND_DEF_STEREO_COUNT>
0

> <PUBCHEM_BOND_UDEF_STEREO_COUNT>
0

> <PUBCHEM_ISOTOPIC_ATOM_COUNT>
0

> <PUBCHEM_COMPONENT_COUNT>
1

> <PUBCHEM_CACTVS_TAUTO_COUNT>
-1

> <PUBCHEM_COORDINATE_TYPE>
1
5
255

$$$$
