14569991
  -OEChem-05122609552D

 93 96  0     0  0  0  0  0  0999 V2000
    7.5000    2.0000    0.0000 P   0  0  0  0  0  0  0  0  0  0  0  0
    7.5000   -2.0000    0.0000 P   0  0  0  0  0  0  0  0  0  0  0  0
    8.3660    1.5000    0.0000 O   0  0  0  0  0  0  0  0  0  0  0  0
    6.6340    1.5000    0.0000 O   0  0  0  0  0  0  0  0  0  0  0  0
    6.6340   -1.5000    0.0000 O   0  0  0  0  0  0  0  0  0  0  0  0
    8.3660   -1.5000    0.0000 O   0  0  0  0  0  0  0  0  0  0  0  0
    8.0000    2.8660    0.0000 O   0  0  0  0  0  0  0  0  0  0  0  0
    7.0000   -2.8660    0.0000 O   0  0  0  0  0  0  0  0  0  0  0  0
    7.0000    2.8660    0.0000 O   0  0  0  0  0  0  0  0  0  0  0  0
    8.0000   -2.8660    0.0000 O   0  0  0  0  0  0  0  0  0  0  0  0
    7.5000    0.0000    0.0000 C   0  0  0  0  0  0  0  0  0  0  0  0
    8.3660    0.5000    0.0000 C   0  0  0  0  0  0  0  0  0  0  0  0
    6.6340    0.5000    0.0000 C   0  0  0  0  0  0  0  0  0  0  0  0
    6.6340   -0.5000    0.0000 C   0  0  0  0  0  0  0  0  0  0  0  0
    8.3660   -0.5000    0.0000 C   0  0  0  0  0  0  0  0  0  0  0  0
    9.0000    4.5981    0.0000 C   0  0  0  0  0  0  0  0  0  0  0  0
    6.0000   -4.5981    0.0000 C   0  0  0  0  0  0  0  0  0  0  0  0
    9.5000    3.7321    0.0000 C   0  0  0  0  0  0  0  0  0  0  0  0
    5.5000   -3.7321    0.0000 C   0  0  0  0  0  0  0  0  0  0  0  0
    9.0000    2.8660    0.0000 C   0  0  0  0  0  0  0  0  0  0  0  0
    6.0000   -2.8660    0.0000 C   0  0  0  0  0  0  0  0  0  0  0  0
   12.0000    2.8660    0.0000 C   0  0  0  0  0  0  0  0  0  0  0  0
    3.0000   -2.8660    0.0000 C   0  0  0  0  0  0  0  0  0  0  0  0
   11.0000    2.8660    0.0000 C   0  0  0  0  0  0  0  0  0  0  0  0
    4.0000   -2.8660    0.0000 C   0  0  0  0  0  0  0  0  0  0  0  0
   10.5000    3.7321    0.0000 C   0  0  0  0  0  0  0  0  0  0  0  0
    4.5000   -3.7321    0.0000 C   0  0  0  0  0  0  0  0  0  0  0  0
    8.5000    5.4641    0.0000 C   0  0  0  0  0  0  0  0  0  0  0  0
    9.8660    5.0981    0.0000 C   0  0  0  0  0  0  0  0  0  0  0  0
    8.1340    4.0981    0.0000 C   0  0  0  0  0  0  0  0  0  0  0  0
    6.5000   -5.4641    0.0000 C   0  0  0  0  0  0  0  0  0  0  0  0
    5.1340   -5.0981    0.0000 C   0  0  0  0  0  0  0  0  0  0  0  0
    6.8660   -4.0981    0.0000 C   0  0  0  0  0  0  0  0  0  0  0  0
    9.5000    2.0000    0.0000 C   0  0  0  0  0  0  0  0  0  0  0  0
    5.5000   -2.0000    0.0000 C   0  0  0  0  0  0  0  0  0  0  0  0
   10.5000    2.0000    0.0000 C   0  0  0  0  0  0  0  0  0  0  0  0
    4.5000   -2.0000    0.0000 C   0  0  0  0  0  0  0  0  0  0  0  0
   13.0000    2.8660    0.0000 C   0  0  0  0  0  0  0  0  0  0  0  0
   12.0000    3.8660    0.0000 C   0  0  0  0  0  0  0  0  0  0  0  0
   12.0000    1.8660    0.0000 C   0  0  0  0  0  0  0  0  0  0  0  0
    2.0000   -2.8660    0.0000 C   0  0  0  0  0  0  0  0  0  0  0  0
    3.0000   -3.8660    0.0000 C   0  0  0  0  0  0  0  0  0  0  0  0
    3.0000   -1.8660    0.0000 C   0  0  0  0  0  0  0  0  0  0  0  0
    8.5781   -0.0826    0.0000 H   0  0  0  0  0  0  0  0  0  0  0  0
    8.9766    0.6077    0.0000 H   0  0  0  0  0  0  0  0  0  0  0  0
    6.0234    0.6077    0.0000 H   0  0  0  0  0  0  0  0  0  0  0  0
    6.4219   -0.0826    0.0000 H   0  0  0  0  0  0  0  0  0  0  0  0
    6.4219    0.0826    0.0000 H   0  0  0  0  0  0  0  0  0  0  0  0
    6.0234   -0.6077    0.0000 H   0  0  0  0  0  0  0  0  0  0  0  0
    8.9766   -0.6077    0.0000 H   0  0  0  0  0  0  0  0  0  0  0  0
    8.5781    0.0826    0.0000 H   0  0  0  0  0  0  0  0  0  0  0  0
   10.8100    4.2690    0.0000 H   0  0  0  0  0  0  0  0  0  0  0  0
    4.1900   -4.2690    0.0000 H   0  0  0  0  0  0  0  0  0  0  0  0
    9.0369    5.7741    0.0000 H   0  0  0  0  0  0  0  0  0  0  0  0
    8.1900    6.0010    0.0000 H   0  0  0  0  0  0  0  0  0  0  0  0
    7.9631    5.1541    0.0000 H   0  0  0  0  0  0  0  0  0  0  0  0
   10.1760    4.5611    0.0000 H   0  0  0  0  0  0  0  0  0  0  0  0
   10.4030    5.4081    0.0000 H   0  0  0  0  0  0  0  0  0  0  0  0
    9.5560    5.6350    0.0000 H   0  0  0  0  0  0  0  0  0  0  0  0
    7.8240    4.6350    0.0000 H   0  0  0  0  0  0  0  0  0  0  0  0
    7.5970    3.7881    0.0000 H   0  0  0  0  0  0  0  0  0  0  0  0
    8.4440    3.5611    0.0000 H   0  0  0  0  0  0  0  0  0  0  0  0
    5.9631   -5.7741    0.0000 H   0  0  0  0  0  0  0  0  0  0  0  0
    6.8100   -6.0010    0.0000 H   0  0  0  0  0  0  0  0  0  0  0  0
    7.0369   -5.1541    0.0000 H   0  0  0  0  0  0  0  0  0  0  0  0
    4.8240   -4.5611    0.0000 H   0  0  0  0  0  0  0  0  0  0  0  0
    4.5970   -5.4081    0.0000 H   0  0  0  0  0  0  0  0  0  0  0  0
    5.4440   -5.6350    0.0000 H   0  0  0  0  0  0  0  0  0  0  0  0
    7.1760   -4.6350    0.0000 H   0  0  0  0  0  0  0  0  0  0  0  0
    7.4030   -3.7881    0.0000 H   0  0  0  0  0  0  0  0  0  0  0  0
    6.5560   -3.5611    0.0000 H   0  0  0  0  0  0  0  0  0  0  0  0
    9.1900    1.4631    0.0000 H   0  0  0  0  0  0  0  0  0  0  0  0
    5.8100   -1.4631    0.0000 H   0  0  0  0  0  0  0  0  0  0  0  0
   10.8100    1.4631    0.0000 H   0  0  0  0  0  0  0  0  0  0  0  0
    4.1900   -1.4631    0.0000 H   0  0  0  0  0  0  0  0  0  0  0  0
   13.0000    2.2460    0.0000 H   0  0  0  0  0  0  0  0  0  0  0  0
   13.6200    2.8660    0.0000 H   0  0  0  0  0  0  0  0  0  0  0  0
   13.0000    3.4860    0.0000 H   0  0  0  0  0  0  0  0  0  0  0  0
   12.6200    3.8660    0.0000 H   0  0  0  0  0  0  0  0  0  0  0  0
   12.0000    4.4860    0.0000 H   0  0  0  0  0  0  0  0  0  0  0  0
   11.3800    3.8660    0.0000 H   0  0  0  0  0  0  0  0  0  0  0  0
   11.3800    1.8660    0.0000 H   0  0  0  0  0  0  0  0  0  0  0  0
   12.0000    1.2460    0.0000 H   0  0  0  0  0  0  0  0  0  0  0  0
   12.6200    1.8660    0.0000 H   0  0  0  0  0  0  0  0  0  0  0  0
    2.0000   -2.2460    0.0000 H   0  0  0  0  0  0  0  0  0  0  0  0
    1.3800   -2.8660    0.0000 H   0  0  0  0  0  0  0  0  0  0  0  0
    2.0000   -3.4860    0.0000 H   0  0  0  0  0  0  0  0  0  0  0  0
    2.3800   -3.8660    0.0000 H   0  0  0  0  0  0  0  0  0  0  0  0
    3.0000   -4.4860    0.0000 H   0  0  0  0  0  0  0  0  0  0  0  0
    3.6200   -3.8660    0.0000 H   0  0  0  0  0  0  0  0  0  0  0  0
    3.6200   -1.8660    0.0000 H   0  0  0  0  0  0  0  0  0  0  0  0
    3.0000   -1.2460    0.0000 H   0  0  0  0  0  0  0  0  0  0  0  0
    2.3800   -1.8660    0.0000 H   0  0  0  0  0  0  0  0  0  0  0  0
  1  3  1  0  0  0  0
  1  4  1  0  0  0  0
  1  7  1  0  0  0  0
  1  9  2  0  0  0  0
  2  5  1  0  0  0  0
  2  6  1  0  0  0  0
  2  8  1  0  0  0  0
  2 10  2  0  0  0  0
  3 12  1  0  0  0  0
  4 13  1  0  0  0  0
  5 14  1  0  0  0  0
  6 15  1  0  0  0  0
  7 20  1  0  0  0  0
  8 21  1  0  0  0  0
 11 12  1  0  0  0  0
 11 13  1  0  0  0  0
 11 14  1  0  0  0  0
 11 15  1  0  0  0  0
 12 44  1  0  0  0  0
 12 45  1  0  0  0  0
 13 46  1  0  0  0  0
 13 47  1  0  0  0  0
 14 48  1  0  0  0  0
 14 49  1  0  0  0  0
 15 50  1  0  0  0  0
 15 51  1  0  0  0  0
 16 18  1  0  0  0  0
 16 28  1  0  0  0  0
 16 29  1  0  0  0  0
 16 30  1  0  0  0  0
 17 19  1  0  0  0  0
 17 31  1  0  0  0  0
 17 32  1  0  0  0  0
 17 33  1  0  0  0  0
 18 20  2  0  0  0  0
 18 26  1  0  0  0  0
 19 21  2  0  0  0  0
 19 27  1  0  0  0  0
 20 34  1  0  0  0  0
 21 35  1  0  0  0  0
 22 24  1  0  0  0  0
 22 38  1  0  0  0  0
 22 39  1  0  0  0  0
 22 40  1  0  0  0  0
 23 25  1  0  0  0  0
 23 41  1  0  0  0  0
 23 42  1  0  0  0  0
 23 43  1  0  0  0  0
 24 26  2  0  0  0  0
 24 36  1  0  0  0  0
 25 27  2  0  0  0  0
 25 37  1  0  0  0  0
 26 52  1  0  0  0  0
 27 53  1  0  0  0  0
 28 54  1  0  0  0  0
 28 55  1  0  0  0  0
 28 56  1  0  0  0  0
 29 57  1  0  0  0  0
 29 58  1  0  0  0  0
 29 59  1  0  0  0  0
 30 60  1  0  0  0  0
 30 61  1  0  0  0  0
 30 62  1  0  0  0  0
 31 63  1  0  0  0  0
 31 64  1  0  0  0  0
 31 65  1  0  0  0  0
 32 66  1  0  0  0  0
 32 67  1  0  0  0  0
 32 68  1  0  0  0  0
 33 69  1  0  0  0  0
 33 70  1  0  0  0  0
 33 71  1  0  0  0  0
 34 36  2  0  0  0  0
 34 72  1  0  0  0  0
 35 37  2  0  0  0  0
 35 73  1  0  0  0  0
 36 74  1  0  0  0  0
 37 75  1  0  0  0  0
 38 76  1  0  0  0  0
 38 77  1  0  0  0  0
 38 78  1  0  0  0  0
 39 79  1  0  0  0  0
 39 80  1  0  0  0  0
 39 81  1  0  0  0  0
 40 82  1  0  0  0  0
 40 83  1  0  0  0  0
 40 84  1  0  0  0  0
 41 85  1  0  0  0  0
 41 86  1  0  0  0  0
 41 87  1  0  0  0  0
 42 88  1  0  0  0  0
 42 89  1  0  0  0  0
 42 90  1  0  0  0  0
 43 91  1  0  0  0  0
 43 92  1  0  0  0  0
 43 93  1  0  0  0  0
M  END
> <PUBCHEM_COMPOUND_CID>
14569991

> <PUBCHEM_COMPOUND_CANONICALIZED>
1

> <PUBCHEM_CACTVS_COMPLEXITY>
951

> <PUBCHEM_CACTVS_HBOND_ACCEPTOR>
8

> <PUBCHEM_CACTVS_HBOND_DONOR>
0

> <PUBCHEM_CACTVS_ROTATABLE_BOND>
8

> <PUBCHEM_CACTVS_SUBSKEYS>
AAADcfB8PAMAAAAAAAAAAAAAAAAAAAAAAAA0aIEAAAAAAAABQAAAGgAAACAADgSgmAIyBoAAARCAQiBCAIACAAAgIAAIiAAGCIgIJiKAERKAMAAlwBEIiAeAwPAPoAACAAAIAABAAAQAABAAAAAAAAAAAA==

> <PUBCHEM_IUPAC_OPENEYE_NAME>
3,9-bis(2,4-ditert-butylphenoxy)-2,4,8,10-tetraoxa-3lambda5,9lambda5-diphosphaspiro[5.5]undecane 3,9-dioxide

> <PUBCHEM_IUPAC_CAS_NAME>
3,9-bis(2,4-ditert-butylphenoxy)-2,4,8,10-tetraoxa-3lambda5,9lambda5-diphosphaspiro[5.5]undecane 3,9-dioxide

> <PUBCHEM_IUPAC_NAME_MARKUP>
3,9-bis(2,4-di<I>tert</I>-butylphenoxy)-2,4,8,10-tetraoxa-3&lambda;<SUP>5</SUP>,9&lambda;<SUP>5</SUP>-diphosphaspiro[5.5]undecane 3,9-dioxide

> <PUBCHEM_IUPAC_NAME>
3,9-bis(2,4-ditert-butylphenoxy)-2,4,8,10-tetraoxa-3lambda5,9lambda5-diphosphaspiro[5.5]undecane 3,9-dioxide

> <PUBCHEM_IUPAC_SYSTEMATIC_NAME>
3,9-bis(2,4-ditert-butylphenoxy)-2,4,8,10-tetraoxa-3lambda5,9lambda5-diphosphaspiro[5.5]undecane 3,9-dioxide

> <PUBCHEM_IUPAC_TRADITIONAL_NAME>
3,9-bis(2,4-ditert-butylphenoxy)-2,4,8,10-tetraoxa-3lambda5,9lambda5-diphosphaspiro[5.5]undecane 3,9-dioxide

> <PUBCHEM_IUPAC_INCHI>
InChI=1S/C33H50O8P2/c1-29(2,3)23-13-15-27(25(17-23)31(7,8)9)40-42(34)36-19-33(20-37-42)21-38-43(35,39-22-33)41-28-16-14-24(30(4,5)6)18-26(28)32(10,11)12/h13-18H,19-22H2,1-12H3

> <PUBCHEM_IUPAC_INCHIKEY>
UUGYQSGVIHEBQD-UHFFFAOYSA-N

> <PUBCHEM_XLOGP3_AA>
8.8

> <PUBCHEM_EXACT_MASS>
636.29809254

> <PUBCHEM_MOLECULAR_FORMULA>
C33H50O8P2

> <PUBCHEM_MOLECULAR_WEIGHT>
636.7

> <PUBCHEM_SMILES>
CC(C)(C)C1=CC(=C(C=C1)OP2(=O)OCC3(CO2)COP(=O)(OC3)OC4=C(C=C(C=C4)C(C)(C)C)C(C)(C)C)C(C)(C)C

> <PUBCHEM_CONNECTIVITY_SMILES>
CC(C)(C)C1=CC(=C(C=C1)OP2(=O)OCC3(CO2)COP(=O)(OC3)OC4=C(C=C(C=C4)C(C)(C)C)C(C)(C)C)C(C)(C)C

> <PUBCHEM_CACTVS_TPSA>
89.5

> <PUBCHEM_MONOISOTOPIC_WEIGHT>
636.29809254

> <PUBCHEM_TOTAL_CHARGE>
0

> <PUBCHEM_HEAVY_ATOM_COUNT>
43

> <PUBCHEM_ATOM_DEF_STEREO_COUNT>
0

> <PUBCHEM_ATOM_UDEF_STEREO_COUNT>
0

> <PUBCHEM_BOND_DEF_STEREO_COUNT>
0

> <PUBCHEM_BOND_UDEF_STEREO_COUNT>
0

> <PUBCHEM_ISOTOPIC_ATOM_COUNT>
0

> <PUBCHEM_COMPONENT_COUNT>
1

> <PUBCHEM_CACTVS_TAUTO_COUNT>
-1

> <PUBCHEM_COORDINATE_TYPE>
1
5
255

> <PUBCHEM_BONDANNOTATIONS>
18  20  8
18  26  8
19  21  8
19  27  8
20  34  8
21  35  8
24  26  8
24  36  8
25  27  8
25  37  8
34  36  8
35  37  8

$$$$
