14572930
  -OEChem-05122608252D

110112  0     0  0  0  0  0  0999 V2000
    7.1962   -1.3481    0.0000 P   0  0  0  0  0  0  0  0  0  0  0  0
    6.3301   -1.8481    0.0000 O   0  0  0  0  0  0  0  0  0  0  0  0
    8.0622   -0.8481    0.0000 O   0  0  0  0  0  0  0  0  0  0  0  0
    6.6962   -0.4821    0.0000 O   0  0  0  0  0  0  0  0  0  0  0  0
    7.6962   -2.2141    0.0000 O   0  0  0  0  0  0  0  0  0  0  0  0
    4.5981   -2.8481    0.0000 C   0  0  0  0  0  0  0  0  0  0  0  0
    9.7942    0.1519    0.0000 C   0  0  0  0  0  0  0  0  0  0  0  0
    5.6962    1.2500    0.0000 C   0  0  0  0  0  0  0  0  0  0  0  0
    2.8660    0.1519    0.0000 C   0  0  0  0  0  0  0  0  0  0  0  0
   11.5263   -2.8481    0.0000 C   0  0  0  0  0  0  0  0  0  0  0  0
    8.6962    2.9821    0.0000 C   0  0  0  0  0  0  0  0  0  0  0  0
    4.5981   -1.8481    0.0000 C   0  0  0  0  0  0  0  0  0  0  0  0
    9.7942   -0.8481    0.0000 C   0  0  0  0  0  0  0  0  0  0  0  0
    6.6962    1.2500    0.0000 C   0  0  0  0  0  0  0  0  0  0  0  0
    3.7321   -0.3481    0.0000 C   0  0  0  0  0  0  0  0  0  0  0  0
   10.6603   -2.3481    0.0000 C   0  0  0  0  0  0  0  0  0  0  0  0
    8.1962    2.1160    0.0000 C   0  0  0  0  0  0  0  0  0  0  0  0
    3.7321   -1.3481    0.0000 C   0  0  0  0  0  0  0  0  0  0  0  0
   10.6603   -1.3481    0.0000 C   0  0  0  0  0  0  0  0  0  0  0  0
    7.1962    2.1160    0.0000 C   0  0  0  0  0  0  0  0  0  0  0  0
    5.4641   -1.3481    0.0000 C   0  0  0  0  0  0  0  0  0  0  0  0
    8.9282   -1.3481    0.0000 C   0  0  0  0  0  0  0  0  0  0  0  0
    7.1962    0.3840    0.0000 C   0  0  0  0  0  0  0  0  0  0  0  0
    4.5981   -3.8481    0.0000 C   0  0  0  0  0  0  0  0  0  0  0  0
    3.5981   -2.8481    0.0000 C   0  0  0  0  0  0  0  0  0  0  0  0
    5.5981   -2.8481    0.0000 C   0  0  0  0  0  0  0  0  0  0  0  0
    9.7942    1.1519    0.0000 C   0  0  0  0  0  0  0  0  0  0  0  0
   10.7942    0.1519    0.0000 C   0  0  0  0  0  0  0  0  0  0  0  0
    8.7942    0.1519    0.0000 C   0  0  0  0  0  0  0  0  0  0  0  0
    4.6962    1.2500    0.0000 C   0  0  0  0  0  0  0  0  0  0  0  0
    5.6962    2.2500    0.0000 C   0  0  0  0  0  0  0  0  0  0  0  0
    5.6962    0.2500    0.0000 C   0  0  0  0  0  0  0  0  0  0  0  0
    4.5981    0.1519    0.0000 C   0  0  0  0  0  0  0  0  0  0  0  0
    9.7942   -2.8481    0.0000 C   0  0  0  0  0  0  0  0  0  0  0  0
    8.6962    1.2500    0.0000 C   0  0  0  0  0  0  0  0  0  0  0  0
    2.0000    0.6519    0.0000 C   0  0  0  0  0  0  0  0  0  0  0  0
    2.3660   -0.7141    0.0000 C   0  0  0  0  0  0  0  0  0  0  0  0
    3.3660    1.0180    0.0000 C   0  0  0  0  0  0  0  0  0  0  0  0
   12.3923   -3.3481    0.0000 C   0  0  0  0  0  0  0  0  0  0  0  0
   11.0263   -3.7141    0.0000 C   0  0  0  0  0  0  0  0  0  0  0  0
   12.0263   -1.9821    0.0000 C   0  0  0  0  0  0  0  0  0  0  0  0
    9.1962    3.8481    0.0000 C   0  0  0  0  0  0  0  0  0  0  0  0
    9.5622    2.4821    0.0000 C   0  0  0  0  0  0  0  0  0  0  0  0
    7.8301    3.4821    0.0000 C   0  0  0  0  0  0  0  0  0  0  0  0
    5.4641   -0.3481    0.0000 C   0  0  0  0  0  0  0  0  0  0  0  0
    8.9282   -2.3481    0.0000 C   0  0  0  0  0  0  0  0  0  0  0  0
    8.1962    0.3840    0.0000 C   0  0  0  0  0  0  0  0  0  0  0  0
    3.1951   -1.6581    0.0000 H   0  0  0  0  0  0  0  0  0  0  0  0
   11.1972   -1.0381    0.0000 H   0  0  0  0  0  0  0  0  0  0  0  0
    6.8862    2.6530    0.0000 H   0  0  0  0  0  0  0  0  0  0  0  0
    3.9781   -3.8481    0.0000 H   0  0  0  0  0  0  0  0  0  0  0  0
    4.5981   -4.4681    0.0000 H   0  0  0  0  0  0  0  0  0  0  0  0
    5.2181   -3.8481    0.0000 H   0  0  0  0  0  0  0  0  0  0  0  0
    3.5981   -2.2281    0.0000 H   0  0  0  0  0  0  0  0  0  0  0  0
    2.9781   -2.8481    0.0000 H   0  0  0  0  0  0  0  0  0  0  0  0
    3.5981   -3.4681    0.0000 H   0  0  0  0  0  0  0  0  0  0  0  0
    5.5981   -3.4681    0.0000 H   0  0  0  0  0  0  0  0  0  0  0  0
    6.2181   -2.8481    0.0000 H   0  0  0  0  0  0  0  0  0  0  0  0
    5.5981   -2.2281    0.0000 H   0  0  0  0  0  0  0  0  0  0  0  0
   10.4142    1.1519    0.0000 H   0  0  0  0  0  0  0  0  0  0  0  0
    9.7942    1.7719    0.0000 H   0  0  0  0  0  0  0  0  0  0  0  0
    9.1742    1.1519    0.0000 H   0  0  0  0  0  0  0  0  0  0  0  0
   10.7942   -0.4681    0.0000 H   0  0  0  0  0  0  0  0  0  0  0  0
   11.4142    0.1519    0.0000 H   0  0  0  0  0  0  0  0  0  0  0  0
   10.7942    0.7719    0.0000 H   0  0  0  0  0  0  0  0  0  0  0  0
    8.7942    0.7719    0.0000 H   0  0  0  0  0  0  0  0  0  0  0  0
    8.1742    0.1519    0.0000 H   0  0  0  0  0  0  0  0  0  0  0  0
    8.7942   -0.4681    0.0000 H   0  0  0  0  0  0  0  0  0  0  0  0
    4.6962    1.8700    0.0000 H   0  0  0  0  0  0  0  0  0  0  0  0
    4.0762    1.2500    0.0000 H   0  0  0  0  0  0  0  0  0  0  0  0
    4.6962    0.6300    0.0000 H   0  0  0  0  0  0  0  0  0  0  0  0
    6.3162    2.2500    0.0000 H   0  0  0  0  0  0  0  0  0  0  0  0
    5.6962    2.8700    0.0000 H   0  0  0  0  0  0  0  0  0  0  0  0
    5.0762    2.2500    0.0000 H   0  0  0  0  0  0  0  0  0  0  0  0
    5.0762    0.2500    0.0000 H   0  0  0  0  0  0  0  0  0  0  0  0
    5.6962   -0.3700    0.0000 H   0  0  0  0  0  0  0  0  0  0  0  0
    6.3162    0.2500    0.0000 H   0  0  0  0  0  0  0  0  0  0  0  0
    4.5981    0.7719    0.0000 H   0  0  0  0  0  0  0  0  0  0  0  0
    9.7942   -3.4681    0.0000 H   0  0  0  0  0  0  0  0  0  0  0  0
    9.3162    1.2500    0.0000 H   0  0  0  0  0  0  0  0  0  0  0  0
    2.3100    1.1889    0.0000 H   0  0  0  0  0  0  0  0  0  0  0  0
    1.4631    0.9619    0.0000 H   0  0  0  0  0  0  0  0  0  0  0  0
    1.6900    0.1150    0.0000 H   0  0  0  0  0  0  0  0  0  0  0  0
    1.8291   -0.4041    0.0000 H   0  0  0  0  0  0  0  0  0  0  0  0
    2.0560   -1.2510    0.0000 H   0  0  0  0  0  0  0  0  0  0  0  0
    2.9030   -1.0241    0.0000 H   0  0  0  0  0  0  0  0  0  0  0  0
    3.9030    0.7079    0.0000 H   0  0  0  0  0  0  0  0  0  0  0  0
    3.6760    1.5549    0.0000 H   0  0  0  0  0  0  0  0  0  0  0  0
    2.8291    1.3280    0.0000 H   0  0  0  0  0  0  0  0  0  0  0  0
   12.0823   -3.8850    0.0000 H   0  0  0  0  0  0  0  0  0  0  0  0
   12.9292   -3.6581    0.0000 H   0  0  0  0  0  0  0  0  0  0  0  0
   12.7023   -2.8111    0.0000 H   0  0  0  0  0  0  0  0  0  0  0  0
   10.4893   -3.4041    0.0000 H   0  0  0  0  0  0  0  0  0  0  0  0
   10.7163   -4.2510    0.0000 H   0  0  0  0  0  0  0  0  0  0  0  0
   11.5632   -4.0241    0.0000 H   0  0  0  0  0  0  0  0  0  0  0  0
   12.5632   -2.2921    0.0000 H   0  0  0  0  0  0  0  0  0  0  0  0
   12.3363   -1.4451    0.0000 H   0  0  0  0  0  0  0  0  0  0  0  0
   11.4893   -1.6721    0.0000 H   0  0  0  0  0  0  0  0  0  0  0  0
    9.7331    3.5381    0.0000 H   0  0  0  0  0  0  0  0  0  0  0  0
    9.5062    4.3850    0.0000 H   0  0  0  0  0  0  0  0  0  0  0  0
    8.6592    4.1581    0.0000 H   0  0  0  0  0  0  0  0  0  0  0  0
    9.2522    1.9451    0.0000 H   0  0  0  0  0  0  0  0  0  0  0  0
   10.0991    2.1721    0.0000 H   0  0  0  0  0  0  0  0  0  0  0  0
    9.8722    3.0190    0.0000 H   0  0  0  0  0  0  0  0  0  0  0  0
    8.1401    4.0190    0.0000 H   0  0  0  0  0  0  0  0  0  0  0  0
    7.2932    3.7921    0.0000 H   0  0  0  0  0  0  0  0  0  0  0  0
    7.5201    2.9451    0.0000 H   0  0  0  0  0  0  0  0  0  0  0  0
    6.0010   -0.0381    0.0000 H   0  0  0  0  0  0  0  0  0  0  0  0
    8.3913   -2.6581    0.0000 H   0  0  0  0  0  0  0  0  0  0  0  0
    8.5062   -0.1530    0.0000 H   0  0  0  0  0  0  0  0  0  0  0  0
  1  2  1  0  0  0  0
  1  3  1  0  0  0  0
  1  4  1  0  0  0  0
  1  5  2  0  0  0  0
  2 21  1  0  0  0  0
  3 22  1  0  0  0  0
  4 23  1  0  0  0  0
  6 12  1  0  0  0  0
  6 24  1  0  0  0  0
  6 25  1  0  0  0  0
  6 26  1  0  0  0  0
  7 13  1  0  0  0  0
  7 27  1  0  0  0  0
  7 28  1  0  0  0  0
  7 29  1  0  0  0  0
  8 14  1  0  0  0  0
  8 30  1  0  0  0  0
  8 31  1  0  0  0  0
  8 32  1  0  0  0  0
  9 15  1  0  0  0  0
  9 36  1  0  0  0  0
  9 37  1  0  0  0  0
  9 38  1  0  0  0  0
 10 16  1  0  0  0  0
 10 39  1  0  0  0  0
 10 40  1  0  0  0  0
 10 41  1  0  0  0  0
 11 17  1  0  0  0  0
 11 42  1  0  0  0  0
 11 43  1  0  0  0  0
 11 44  1  0  0  0  0
 12 18  1  0  0  0  0
 12 21  2  0  0  0  0
 13 19  1  0  0  0  0
 13 22  2  0  0  0  0
 14 20  1  0  0  0  0
 14 23  2  0  0  0  0
 15 18  2  0  0  0  0
 15 33  1  0  0  0  0
 16 19  2  0  0  0  0
 16 34  1  0  0  0  0
 17 20  2  0  0  0  0
 17 35  1  0  0  0  0
 18 48  1  0  0  0  0
 19 49  1  0  0  0  0
 20 50  1  0  0  0  0
 21 45  1  0  0  0  0
 22 46  1  0  0  0  0
 23 47  1  0  0  0  0
 24 51  1  0  0  0  0
 24 52  1  0  0  0  0
 24 53  1  0  0  0  0
 25 54  1  0  0  0  0
 25 55  1  0  0  0  0
 25 56  1  0  0  0  0
 26 57  1  0  0  0  0
 26 58  1  0  0  0  0
 26 59  1  0  0  0  0
 27 60  1  0  0  0  0
 27 61  1  0  0  0  0
 27 62  1  0  0  0  0
 28 63  1  0  0  0  0
 28 64  1  0  0  0  0
 28 65  1  0  0  0  0
 29 66  1  0  0  0  0
 29 67  1  0  0  0  0
 29 68  1  0  0  0  0
 30 69  1  0  0  0  0
 30 70  1  0  0  0  0
 30 71  1  0  0  0  0
 31 72  1  0  0  0  0
 31 73  1  0  0  0  0
 31 74  1  0  0  0  0
 32 75  1  0  0  0  0
 32 76  1  0  0  0  0
 32 77  1  0  0  0  0
 33 45  2  0  0  0  0
 33 78  1  0  0  0  0
 34 46  2  0  0  0  0
 34 79  1  0  0  0  0
 35 47  2  0  0  0  0
 35 80  1  0  0  0  0
 36 81  1  0  0  0  0
 36 82  1  0  0  0  0
 36 83  1  0  0  0  0
 37 84  1  0  0  0  0
 37 85  1  0  0  0  0
 37 86  1  0  0  0  0
 38 87  1  0  0  0  0
 38 88  1  0  0  0  0
 38 89  1  0  0  0  0
 39 90  1  0  0  0  0
 39 91  1  0  0  0  0
 39 92  1  0  0  0  0
 40 93  1  0  0  0  0
 40 94  1  0  0  0  0
 40 95  1  0  0  0  0
 41 96  1  0  0  0  0
 41 97  1  0  0  0  0
 41 98  1  0  0  0  0
 42 99  1  0  0  0  0
 42100  1  0  0  0  0
 42101  1  0  0  0  0
 43102  1  0  0  0  0
 43103  1  0  0  0  0
 43104  1  0  0  0  0
 44105  1  0  0  0  0
 44106  1  0  0  0  0
 44107  1  0  0  0  0
 45108  1  0  0  0  0
 46109  1  0  0  0  0
 47110  1  0  0  0  0
M  END
> <PUBCHEM_COMPOUND_CID>
14572930

> <PUBCHEM_COMPOUND_CANONICALIZED>
1

> <PUBCHEM_CACTVS_COMPLEXITY>
920

> <PUBCHEM_CACTVS_HBOND_ACCEPTOR>
4

> <PUBCHEM_CACTVS_HBOND_DONOR>
0

> <PUBCHEM_CACTVS_ROTATABLE_BOND>
12

> <PUBCHEM_CACTVS_SUBSKEYS>
AAADcfB8OAIAAAAAAAAAAAAAAAAAAAAAAAAwYMAAAAAAAAABUAAAGgAAACAADgSAmAAyBoAAARCAQiBCAIACAAAgIAAIiAAGCIgIJiKAERKAMAAkwBEIiAeAwPAPoAACAAAIAABAAAQAABAAAAAAAAAAAA==

> <PUBCHEM_IUPAC_OPENEYE_NAME>
tris(2,4-ditert-butylphenyl) phosphate

> <PUBCHEM_IUPAC_CAS_NAME>
phosphoric acid tris(2,4-ditert-butylphenyl) ester

> <PUBCHEM_IUPAC_NAME_MARKUP>
tris(2,4-di<I>tert</I>-butylphenyl) phosphate

> <PUBCHEM_IUPAC_NAME>
tris(2,4-ditert-butylphenyl) phosphate

> <PUBCHEM_IUPAC_SYSTEMATIC_NAME>
tris(2,4-ditert-butylphenyl) phosphate

> <PUBCHEM_IUPAC_TRADITIONAL_NAME>
phosphoric acid tris(2,4-ditert-butylphenyl) ester

> <PUBCHEM_IUPAC_INCHI>
InChI=1S/C42H63O4P/c1-37(2,3)28-19-22-34(31(25-28)40(10,11)12)44-47(43,45-35-23-20-29(38(4,5)6)26-32(35)41(13,14)15)46-36-24-21-30(39(7,8)9)27-33(36)42(16,17)18/h19-27H,1-18H3

> <PUBCHEM_IUPAC_INCHIKEY>
AZSKHRTUXHLAHS-UHFFFAOYSA-N

> <PUBCHEM_XLOGP3_AA>
15

> <PUBCHEM_EXACT_MASS>
662.44639748

> <PUBCHEM_MOLECULAR_FORMULA>
C42H63O4P

> <PUBCHEM_MOLECULAR_WEIGHT>
662.9

> <PUBCHEM_SMILES>
CC(C)(C)C1=CC(=C(C=C1)OP(=O)(OC2=C(C=C(C=C2)C(C)(C)C)C(C)(C)C)OC3=C(C=C(C=C3)C(C)(C)C)C(C)(C)C)C(C)(C)C

> <PUBCHEM_CONNECTIVITY_SMILES>
CC(C)(C)C1=CC(=C(C=C1)OP(=O)(OC2=C(C=C(C=C2)C(C)(C)C)C(C)(C)C)OC3=C(C=C(C=C3)C(C)(C)C)C(C)(C)C)C(C)(C)C

> <PUBCHEM_CACTVS_TPSA>
44.8

> <PUBCHEM_MONOISOTOPIC_WEIGHT>
662.44639748

> <PUBCHEM_TOTAL_CHARGE>
0

> <PUBCHEM_HEAVY_ATOM_COUNT>
47

> <PUBCHEM_ATOM_DEF_STEREO_COUNT>
0

> <PUBCHEM_ATOM_UDEF_STEREO_COUNT>
0

> <PUBCHEM_BOND_DEF_STEREO_COUNT>
0

> <PUBCHEM_BOND_UDEF_STEREO_COUNT>
0

> <PUBCHEM_ISOTOPIC_ATOM_COUNT>
0

> <PUBCHEM_COMPONENT_COUNT>
1

> <PUBCHEM_CACTVS_TAUTO_COUNT>
-1

> <PUBCHEM_COORDINATE_TYPE>
1
5
255

> <PUBCHEM_BONDANNOTATIONS>
12  18  8
12  21  8
13  19  8
13  22  8
14  20  8
14  23  8
15  18  8
15  33  8
16  19  8
16  34  8
17  20  8
17  35  8
21  45  8
22  46  8
23  47  8
33  45  8
34  46  8
35  47  8

$$$$
