145787019
  -OEChem-05122608492D

 74 76  0     0  0  0  0  0  0999 V2000
    5.5000    0.0000    0.0000 P   0  0  0  0  0  0  0  0  0  0  0  0
    6.3660    0.5000    0.0000 O   0  0  0  0  0  0  0  0  0  0  0  0
    4.6340   -0.5000    0.0000 O   0  0  0  0  0  0  0  0  0  0  0  0
    5.0000    0.8660    0.0000 O   0  0  0  0  0  0  0  0  0  0  0  0
    6.0000   -0.8660    0.0000 O   0  0  0  0  0  0  0  0  0  0  0  0
    8.0981    1.5000    0.0000 C   0  0  0  0  0  0  0  0  0  0  0  0
    2.9019   -1.5000    0.0000 C   0  0  0  0  0  0  0  0  0  0  0  0
    7.2321    2.0000    0.0000 C   0  0  0  0  0  0  0  0  0  0  0  0
    3.7680   -2.0000    0.0000 C   0  0  0  0  0  0  0  0  0  0  0  0
    6.3660    4.5000    0.0000 C   0  0  0  0  0  0  0  0  0  0  0  0
    4.6340   -4.5000    0.0000 C   0  0  0  0  0  0  0  0  0  0  0  0
    6.3660    3.5000    0.0000 C   0  0  0  0  0  0  0  0  0  0  0  0
    4.6340   -3.5000    0.0000 C   0  0  0  0  0  0  0  0  0  0  0  0
    7.2321    3.0000    0.0000 C   0  0  0  0  0  0  0  0  0  0  0  0
    3.7680   -3.0000    0.0000 C   0  0  0  0  0  0  0  0  0  0  0  0
    6.3660    1.5000    0.0000 C   0  0  0  0  0  0  0  0  0  0  0  0
    4.6340   -1.5000    0.0000 C   0  0  0  0  0  0  0  0  0  0  0  0
    5.5000    3.0000    0.0000 C   0  0  0  0  0  0  0  0  0  0  0  0
    5.5000   -3.0000    0.0000 C   0  0  0  0  0  0  0  0  0  0  0  0
    5.5000    2.0000    0.0000 C   0  0  0  0  0  0  0  0  0  0  0  0
    5.5000   -2.0000    0.0000 C   0  0  0  0  0  0  0  0  0  0  0  0
    8.9641    2.0000    0.0000 C   0  0  0  0  0  0  0  0  0  0  0  0
    8.0981    0.5000    0.0000 C   0  0  0  0  0  0  0  0  0  0  0  0
    2.0359   -2.0000    0.0000 C   0  0  0  0  0  0  0  0  0  0  0  0
    2.9019   -0.5000    0.0000 C   0  0  0  0  0  0  0  0  0  0  0  0
    7.2321    5.0000    0.0000 C   0  0  0  0  0  0  0  0  0  0  0  0
    5.5000    5.0000    0.0000 C   0  0  0  0  0  0  0  0  0  0  0  0
    5.5000   -5.0000    0.0000 C   0  0  0  0  0  0  0  0  0  0  0  0
    3.7680   -5.0000    0.0000 C   0  0  0  0  0  0  0  0  0  0  0  0
    4.0000    0.8660    0.0000 C   0  0  0  0  0  0  0  0  0  0  0  0
    3.5000    1.7321    0.0000 C   0  0  0  0  0  0  0  0  0  0  0  0
    3.5000   -0.0000    0.0000 C   0  0  0  0  0  0  0  0  0  0  0  0
    2.5000    1.7321    0.0000 C   0  0  0  0  0  0  0  0  0  0  0  0
    2.5000    0.0000    0.0000 C   0  0  0  0  0  0  0  0  0  0  0  0
    2.0000    0.8660    0.0000 C   0  0  0  0  0  0  0  0  0  0  0  0
    7.5611    1.1900    0.0000 H   0  0  0  0  0  0  0  0  0  0  0  0
    3.4389   -1.1900    0.0000 H   0  0  0  0  0  0  0  0  0  0  0  0
    6.3660    5.1200    0.0000 H   0  0  0  0  0  0  0  0  0  0  0  0
    4.6340   -5.1200    0.0000 H   0  0  0  0  0  0  0  0  0  0  0  0
    7.7690    3.3100    0.0000 H   0  0  0  0  0  0  0  0  0  0  0  0
    3.2310   -3.3100    0.0000 H   0  0  0  0  0  0  0  0  0  0  0  0
    4.9631    3.3100    0.0000 H   0  0  0  0  0  0  0  0  0  0  0  0
    6.0369   -3.3100    0.0000 H   0  0  0  0  0  0  0  0  0  0  0  0
    4.9631    1.6900    0.0000 H   0  0  0  0  0  0  0  0  0  0  0  0
    6.0369   -1.6900    0.0000 H   0  0  0  0  0  0  0  0  0  0  0  0
    9.2741    1.4631    0.0000 H   0  0  0  0  0  0  0  0  0  0  0  0
    9.5010    2.3100    0.0000 H   0  0  0  0  0  0  0  0  0  0  0  0
    8.6541    2.5369    0.0000 H   0  0  0  0  0  0  0  0  0  0  0  0
    7.4781    0.5000    0.0000 H   0  0  0  0  0  0  0  0  0  0  0  0
    8.0981   -0.1200    0.0000 H   0  0  0  0  0  0  0  0  0  0  0  0
    8.7181    0.5000    0.0000 H   0  0  0  0  0  0  0  0  0  0  0  0
    1.7259   -1.4631    0.0000 H   0  0  0  0  0  0  0  0  0  0  0  0
    1.4990   -2.3100    0.0000 H   0  0  0  0  0  0  0  0  0  0  0  0
    2.3459   -2.5369    0.0000 H   0  0  0  0  0  0  0  0  0  0  0  0
    3.5219   -0.5000    0.0000 H   0  0  0  0  0  0  0  0  0  0  0  0
    2.9019    0.1200    0.0000 H   0  0  0  0  0  0  0  0  0  0  0  0
    2.2819   -0.5000    0.0000 H   0  0  0  0  0  0  0  0  0  0  0  0
    7.5421    4.4631    0.0000 H   0  0  0  0  0  0  0  0  0  0  0  0
    7.7690    5.3100    0.0000 H   0  0  0  0  0  0  0  0  0  0  0  0
    6.9221    5.5369    0.0000 H   0  0  0  0  0  0  0  0  0  0  0  0
    5.8100    5.5369    0.0000 H   0  0  0  0  0  0  0  0  0  0  0  0
    4.9631    5.3100    0.0000 H   0  0  0  0  0  0  0  0  0  0  0  0
    5.1900    4.4631    0.0000 H   0  0  0  0  0  0  0  0  0  0  0  0
    5.1900   -5.5369    0.0000 H   0  0  0  0  0  0  0  0  0  0  0  0
    6.0369   -5.3100    0.0000 H   0  0  0  0  0  0  0  0  0  0  0  0
    5.8100   -4.4631    0.0000 H   0  0  0  0  0  0  0  0  0  0  0  0
    3.4580   -4.4631    0.0000 H   0  0  0  0  0  0  0  0  0  0  0  0
    3.2310   -5.3100    0.0000 H   0  0  0  0  0  0  0  0  0  0  0  0
    4.0780   -5.5369    0.0000 H   0  0  0  0  0  0  0  0  0  0  0  0
    3.8100    2.2690    0.0000 H   0  0  0  0  0  0  0  0  0  0  0  0
    3.8100   -0.5369    0.0000 H   0  0  0  0  0  0  0  0  0  0  0  0
    2.1900    2.2690    0.0000 H   0  0  0  0  0  0  0  0  0  0  0  0
    2.1900   -0.5369    0.0000 H   0  0  0  0  0  0  0  0  0  0  0  0
    1.3800    0.8660    0.0000 H   0  0  0  0  0  0  0  0  0  0  0  0
  1  2  1  0  0  0  0
  1  3  1  0  0  0  0
  1  4  1  0  0  0  0
  1  5  2  0  0  0  0
  2 16  1  0  0  0  0
  3 17  1  0  0  0  0
  4 30  1  0  0  0  0
  6  8  1  0  0  0  0
  6 22  1  0  0  0  0
  6 23  1  0  0  0  0
  6 36  1  0  0  0  0
  7  9  1  0  0  0  0
  7 24  1  0  0  0  0
  7 25  1  0  0  0  0
  7 37  1  0  0  0  0
  8 14  1  0  0  0  0
  8 16  2  0  0  0  0
  9 15  1  0  0  0  0
  9 17  2  0  0  0  0
 10 12  1  0  0  0  0
 10 26  1  0  0  0  0
 10 27  1  0  0  0  0
 10 38  1  0  0  0  0
 11 13  1  0  0  0  0
 11 28  1  0  0  0  0
 11 29  1  0  0  0  0
 11 39  1  0  0  0  0
 12 14  2  0  0  0  0
 12 18  1  0  0  0  0
 13 15  2  0  0  0  0
 13 19  1  0  0  0  0
 14 40  1  0  0  0  0
 15 41  1  0  0  0  0
 16 20  1  0  0  0  0
 17 21  1  0  0  0  0
 18 20  2  0  0  0  0
 18 42  1  0  0  0  0
 19 21  2  0  0  0  0
 19 43  1  0  0  0  0
 20 44  1  0  0  0  0
 21 45  1  0  0  0  0
 22 46  1  0  0  0  0
 22 47  1  0  0  0  0
 22 48  1  0  0  0  0
 23 49  1  0  0  0  0
 23 50  1  0  0  0  0
 23 51  1  0  0  0  0
 24 52  1  0  0  0  0
 24 53  1  0  0  0  0
 24 54  1  0  0  0  0
 25 55  1  0  0  0  0
 25 56  1  0  0  0  0
 25 57  1  0  0  0  0
 26 58  1  0  0  0  0
 26 59  1  0  0  0  0
 26 60  1  0  0  0  0
 27 61  1  0  0  0  0
 27 62  1  0  0  0  0
 27 63  1  0  0  0  0
 28 64  1  0  0  0  0
 28 65  1  0  0  0  0
 28 66  1  0  0  0  0
 29 67  1  0  0  0  0
 29 68  1  0  0  0  0
 29 69  1  0  0  0  0
 30 31  2  0  0  0  0
 30 32  1  0  0  0  0
 31 33  1  0  0  0  0
 31 70  1  0  0  0  0
 32 34  2  0  0  0  0
 32 71  1  0  0  0  0
 33 35  2  0  0  0  0
 33 72  1  0  0  0  0
 34 35  1  0  0  0  0
 34 73  1  0  0  0  0
 35 74  1  0  0  0  0
M  END
> <PUBCHEM_COMPOUND_CID>
145787019

> <PUBCHEM_COMPOUND_CANONICALIZED>
1

> <PUBCHEM_CACTVS_COMPLEXITY>
625

> <PUBCHEM_CACTVS_HBOND_ACCEPTOR>
4

> <PUBCHEM_CACTVS_HBOND_DONOR>
0

> <PUBCHEM_CACTVS_ROTATABLE_BOND>
10

> <PUBCHEM_CACTVS_SUBSKEYS>
AAADcfB4OAIAAAAAAAAAAAAAAAAAAAAAAAAwYMAAAAAAAAABUAAAGgAAACAADQSAmAAyBoAAARCAQiBCAIACAAAgIAAIiAAGCIgIJiKAERKAMAAkwBEIiAeAwPAOoAACAAAIAABAAAQAABAAAAAAAAAAAA==

> <PUBCHEM_IUPAC_OPENEYE_NAME>
bis(2,4-diisopropylphenyl) phenyl phosphate

> <PUBCHEM_IUPAC_CAS_NAME>
phosphoric acid bis[2,4-di(propan-2-yl)phenyl] phenyl ester

> <PUBCHEM_IUPAC_NAME_MARKUP>
bis[2,4-di(propan-2-yl)phenyl] phenyl phosphate

> <PUBCHEM_IUPAC_NAME>
bis[2,4-di(propan-2-yl)phenyl] phenyl phosphate

> <PUBCHEM_IUPAC_SYSTEMATIC_NAME>
bis[2,4-di(propan-2-yl)phenyl] phenyl phosphate

> <PUBCHEM_IUPAC_TRADITIONAL_NAME>
phosphoric acid bis(2,4-diisopropylphenyl) phenyl ester

> <PUBCHEM_IUPAC_INCHI>
InChI=1S/C30H39O4P/c1-20(2)24-14-16-29(27(18-24)22(5)6)33-35(31,32-26-12-10-9-11-13-26)34-30-17-15-25(21(3)4)19-28(30)23(7)8/h9-23H,1-8H3

> <PUBCHEM_IUPAC_INCHIKEY>
XYUZTEZXEXIDQO-UHFFFAOYSA-N

> <PUBCHEM_XLOGP3_AA>
9.5

> <PUBCHEM_EXACT_MASS>
494.25859672

> <PUBCHEM_MOLECULAR_FORMULA>
C30H39O4P

> <PUBCHEM_MOLECULAR_WEIGHT>
494.6

> <PUBCHEM_SMILES>
CC(C)C1=CC(=C(C=C1)OP(=O)(OC2=CC=CC=C2)OC3=C(C=C(C=C3)C(C)C)C(C)C)C(C)C

> <PUBCHEM_CONNECTIVITY_SMILES>
CC(C)C1=CC(=C(C=C1)OP(=O)(OC2=CC=CC=C2)OC3=C(C=C(C=C3)C(C)C)C(C)C)C(C)C

> <PUBCHEM_CACTVS_TPSA>
44.8

> <PUBCHEM_MONOISOTOPIC_WEIGHT>
494.25859672

> <PUBCHEM_TOTAL_CHARGE>
0

> <PUBCHEM_HEAVY_ATOM_COUNT>
35

> <PUBCHEM_ATOM_DEF_STEREO_COUNT>
0

> <PUBCHEM_ATOM_UDEF_STEREO_COUNT>
0

> <PUBCHEM_BOND_DEF_STEREO_COUNT>
0

> <PUBCHEM_BOND_UDEF_STEREO_COUNT>
0

> <PUBCHEM_ISOTOPIC_ATOM_COUNT>
0

> <PUBCHEM_COMPONENT_COUNT>
1

> <PUBCHEM_CACTVS_TAUTO_COUNT>
-1

> <PUBCHEM_COORDINATE_TYPE>
1
5
255

> <PUBCHEM_BONDANNOTATIONS>
12  14  8
12  18  8
13  15  8
13  19  8
16  20  8
17  21  8
18  20  8
19  21  8
30  31  8
30  32  8
31  33  8
32  34  8
33  35  8
34  35  8
8  14  8
8  16  8
9  15  8
9  17  8

$$$$
