14615962
  -OEChem-05122609482D

 30 31  0     1  0  0  0  0  0999 V2000
    6.2528   -0.0000    0.0000 O   0  0  0  0  0  0  0  0  0  0  0  0
    3.7139   -0.5000    0.0000 C   0  0  2  0  0  0  0  0  0  0  0  0
    3.7139    0.5000    0.0000 C   0  0  1  0  0  0  0  0  0  0  0  0
    4.6650   -0.8090    0.0000 C   0  0  0  0  0  0  0  0  0  0  0  0
    4.6650    0.8090    0.0000 C   0  0  0  0  0  0  0  0  0  0  0  0
    2.7056   -0.5041    0.0000 C   0  0  0  0  0  0  0  0  0  0  0  0
    2.7056    0.5041    0.0000 C   0  0  0  0  0  0  0  0  0  0  0  0
    5.2528   -0.0000    0.0000 C   0  0  0  0  0  0  0  0  0  0  0  0
    3.7139   -1.5000    0.0000 C   0  0  0  0  0  0  0  0  0  0  0  0
    3.7139    1.5000    0.0000 C   0  0  0  0  0  0  0  0  0  0  0  0
    2.0000   -1.2127    0.0000 C   0  0  0  0  0  0  0  0  0  0  0  0
    2.0000    1.2127    0.0000 C   0  0  0  0  0  0  0  0  0  0  0  0
    4.4128   -1.3754    0.0000 H   0  0  0  0  0  0  0  0  0  0  0  0
    5.2019   -1.1190    0.0000 H   0  0  0  0  0  0  0  0  0  0  0  0
    5.2019    1.1190    0.0000 H   0  0  0  0  0  0  0  0  0  0  0  0
    4.4128    1.3754    0.0000 H   0  0  0  0  0  0  0  0  0  0  0  0
    5.5342   -0.5524    0.0000 H   0  0  0  0  0  0  0  0  0  0  0  0
    3.0939   -1.5000    0.0000 H   0  0  0  0  0  0  0  0  0  0  0  0
    3.7139   -2.1200    0.0000 H   0  0  0  0  0  0  0  0  0  0  0  0
    4.3339   -1.5000    0.0000 H   0  0  0  0  0  0  0  0  0  0  0  0
    4.3339    1.5000    0.0000 H   0  0  0  0  0  0  0  0  0  0  0  0
    3.7139    2.1200    0.0000 H   0  0  0  0  0  0  0  0  0  0  0  0
    3.0939    1.5000    0.0000 H   0  0  0  0  0  0  0  0  0  0  0  0
    1.5607   -0.7752    0.0000 H   0  0  0  0  0  0  0  0  0  0  0  0
    1.5625   -1.6520    0.0000 H   0  0  0  0  0  0  0  0  0  0  0  0
    2.4393   -1.6502    0.0000 H   0  0  0  0  0  0  0  0  0  0  0  0
    2.4393    1.6502    0.0000 H   0  0  0  0  0  0  0  0  0  0  0  0
    1.5625    1.6520    0.0000 H   0  0  0  0  0  0  0  0  0  0  0  0
    1.5607    0.7752    0.0000 H   0  0  0  0  0  0  0  0  0  0  0  0
    6.5628   -0.5369    0.0000 H   0  0  0  0  0  0  0  0  0  0  0  0
  1  8  1  0  0  0  0
  1 30  1  0  0  0  0
  2  3  1  0  0  0  0
  2  4  1  0  0  0  0
  2  6  1  0  0  0  0
  2  9  1  1  0  0  0
  3  5  1  0  0  0  0
  3  7  1  0  0  0  0
  3 10  1  1  0  0  0
  4  8  1  0  0  0  0
  4 13  1  0  0  0  0
  4 14  1  0  0  0  0
  5  8  1  0  0  0  0
  5 15  1  0  0  0  0
  5 16  1  0  0  0  0
  6  7  2  0  0  0  0
  6 11  1  0  0  0  0
  7 12  1  0  0  0  0
  8 17  1  0  0  0  0
  9 18  1  0  0  0  0
  9 19  1  0  0  0  0
  9 20  1  0  0  0  0
 10 21  1  0  0  0  0
 10 22  1  0  0  0  0
 10 23  1  0  0  0  0
 11 24  1  0  0  0  0
 11 25  1  0  0  0  0
 11 26  1  0  0  0  0
 12 27  1  0  0  0  0
 12 28  1  0  0  0  0
 12 29  1  0  0  0  0
M  END
> <PUBCHEM_COMPOUND_CID>
14615962

> <PUBCHEM_COMPOUND_CANONICALIZED>
1

> <PUBCHEM_CACTVS_COMPLEXITY>
240

> <PUBCHEM_CACTVS_HBOND_ACCEPTOR>
1

> <PUBCHEM_CACTVS_HBOND_DONOR>
1

> <PUBCHEM_CACTVS_ROTATABLE_BOND>
0

> <PUBCHEM_CACTVS_SUBSKEYS>
AAADceBwIAAAAAAAAAAAAAAAAABAAYAAAAAAAAAABAAAAAAAAAAAGgAACAAADhSggAICAAAAAgCAAgBAAAAAAAAgAAAACAAAAAgAEAIAAAAAQAAEgAAIAAOAwMAPgAAAAAAAAAAAAAAAAAAAAIAACAAAAA==

> <PUBCHEM_IUPAC_OPENEYE_NAME>
(1R,5S)-1,5,6,7-tetramethylbicyclo[3.2.0]hept-6-en-3-ol

> <PUBCHEM_IUPAC_CAS_NAME>
(1R,5S)-1,5,6,7-tetramethyl-3-bicyclo[3.2.0]hept-6-enol

> <PUBCHEM_IUPAC_NAME_MARKUP>
(1<I>R</I>,5<I>S</I>)-1,5,6,7-tetramethylbicyclo[3.2.0]hept-6-en-3-ol

> <PUBCHEM_IUPAC_NAME>
(1R,5S)-1,5,6,7-tetramethylbicyclo[3.2.0]hept-6-en-3-ol

> <PUBCHEM_IUPAC_SYSTEMATIC_NAME>
(1R,5S)-1,5,6,7-tetramethylbicyclo[3.2.0]hept-6-en-3-ol

> <PUBCHEM_IUPAC_TRADITIONAL_NAME>
(1R,5S)-1,5,6,7-tetramethylbicyclo[3.2.0]hept-6-en-3-ol

> <PUBCHEM_IUPAC_INCHI>
InChI=1S/C11H18O/c1-7-8(2)11(4)6-9(12)5-10(7,11)3/h9,12H,5-6H2,1-4H3/t9?,10-,11+

> <PUBCHEM_IUPAC_INCHIKEY>
ULOCCYPVMDVABL-FGWVZKOKSA-N

> <PUBCHEM_XLOGP3_AA>
1.8

> <PUBCHEM_EXACT_MASS>
166.135765193

> <PUBCHEM_MOLECULAR_FORMULA>
C11H18O

> <PUBCHEM_MOLECULAR_WEIGHT>
166.26

> <PUBCHEM_SMILES>
CC1=C([C@]2([C@@]1(CC(C2)O)C)C)C

> <PUBCHEM_CONNECTIVITY_SMILES>
CC1=C(C2(C1(CC(C2)O)C)C)C

> <PUBCHEM_CACTVS_TPSA>
20.2

> <PUBCHEM_MONOISOTOPIC_WEIGHT>
166.135765193

> <PUBCHEM_TOTAL_CHARGE>
0

> <PUBCHEM_HEAVY_ATOM_COUNT>
12

> <PUBCHEM_ATOM_DEF_STEREO_COUNT>
2

> <PUBCHEM_ATOM_UDEF_STEREO_COUNT>
0

> <PUBCHEM_BOND_DEF_STEREO_COUNT>
0

> <PUBCHEM_BOND_UDEF_STEREO_COUNT>
0

> <PUBCHEM_ISOTOPIC_ATOM_COUNT>
0

> <PUBCHEM_COMPONENT_COUNT>
1

> <PUBCHEM_CACTVS_TAUTO_COUNT>
-1

> <PUBCHEM_COORDINATE_TYPE>
1
5
255

> <PUBCHEM_BONDANNOTATIONS>
2  9  5
3  10  5

$$$$
