14694166
  -OEChem-05122610002D

 51 51  0     0  0  0  0  0  0999 V2000
    5.4641    2.0950    0.0000 O   0  0  0  0  0  0  0  0  0  0  0  0
    7.1962    4.0950    0.0000 O   0  0  0  0  0  0  0  0  0  0  0  0
    8.0622    6.5950    0.0000 O   0  0  0  0  0  0  0  0  0  0  0  0
    3.7321   -3.9050    0.0000 C   0  0  0  0  0  0  0  0  0  0  0  0
    4.5981   -3.4050    0.0000 C   0  0  0  0  0  0  0  0  0  0  0  0
    3.7321   -4.9050    0.0000 C   0  0  0  0  0  0  0  0  0  0  0  0
    4.5981   -2.4050    0.0000 C   0  0  0  0  0  0  0  0  0  0  0  0
    2.8660   -5.4050    0.0000 C   0  0  0  0  0  0  0  0  0  0  0  0
    5.4641   -1.9050    0.0000 C   0  0  0  0  0  0  0  0  0  0  0  0
    2.8660   -6.4050    0.0000 C   0  0  0  0  0  0  0  0  0  0  0  0
    5.4641   -0.9050    0.0000 C   0  0  0  0  0  0  0  0  0  0  0  0
    2.0000   -6.9050    0.0000 C   0  0  0  0  0  0  0  0  0  0  0  0
    4.5981   -0.4050    0.0000 C   0  0  0  0  0  0  0  0  0  0  0  0
    6.3301   -0.4050    0.0000 C   0  0  0  0  0  0  0  0  0  0  0  0
    4.5981    0.5950    0.0000 C   0  0  0  0  0  0  0  0  0  0  0  0
    6.3301    0.5950    0.0000 C   0  0  0  0  0  0  0  0  0  0  0  0
    5.4641    1.0950    0.0000 C   0  0  0  0  0  0  0  0  0  0  0  0
    6.3301    2.5950    0.0000 C   0  0  0  0  0  0  0  0  0  0  0  0
    6.3301    3.5950    0.0000 C   0  0  0  0  0  0  0  0  0  0  0  0
    7.1962    5.0950    0.0000 C   0  0  0  0  0  0  0  0  0  0  0  0
    8.0622    5.5950    0.0000 C   0  0  0  0  0  0  0  0  0  0  0  0
    3.5200   -3.3224    0.0000 H   0  0  0  0  0  0  0  0  0  0  0  0
    3.1215   -4.0127    0.0000 H   0  0  0  0  0  0  0  0  0  0  0  0
    4.8101   -3.9876    0.0000 H   0  0  0  0  0  0  0  0  0  0  0  0
    5.2087   -3.2973    0.0000 H   0  0  0  0  0  0  0  0  0  0  0  0
    3.9441   -5.4876    0.0000 H   0  0  0  0  0  0  0  0  0  0  0  0
    4.3426   -4.7973    0.0000 H   0  0  0  0  0  0  0  0  0  0  0  0
    4.3860   -1.8224    0.0000 H   0  0  0  0  0  0  0  0  0  0  0  0
    3.9875   -2.5127    0.0000 H   0  0  0  0  0  0  0  0  0  0  0  0
    2.6540   -4.8224    0.0000 H   0  0  0  0  0  0  0  0  0  0  0  0
    2.2554   -5.5127    0.0000 H   0  0  0  0  0  0  0  0  0  0  0  0
    5.6762   -2.4876    0.0000 H   0  0  0  0  0  0  0  0  0  0  0  0
    6.0747   -1.7973    0.0000 H   0  0  0  0  0  0  0  0  0  0  0  0
    3.0781   -6.9876    0.0000 H   0  0  0  0  0  0  0  0  0  0  0  0
    3.4766   -6.2973    0.0000 H   0  0  0  0  0  0  0  0  0  0  0  0
    1.6900   -6.3681    0.0000 H   0  0  0  0  0  0  0  0  0  0  0  0
    1.4631   -7.2150    0.0000 H   0  0  0  0  0  0  0  0  0  0  0  0
    2.3100   -7.4419    0.0000 H   0  0  0  0  0  0  0  0  0  0  0  0
    4.0611   -0.7150    0.0000 H   0  0  0  0  0  0  0  0  0  0  0  0
    6.8671   -0.7150    0.0000 H   0  0  0  0  0  0  0  0  0  0  0  0
    4.0611    0.9050    0.0000 H   0  0  0  0  0  0  0  0  0  0  0  0
    6.8671    0.9050    0.0000 H   0  0  0  0  0  0  0  0  0  0  0  0
    6.5422    2.0124    0.0000 H   0  0  0  0  0  0  0  0  0  0  0  0
    6.9407    2.7027    0.0000 H   0  0  0  0  0  0  0  0  0  0  0  0
    6.1181    4.1776    0.0000 H   0  0  0  0  0  0  0  0  0  0  0  0
    5.7196    3.4873    0.0000 H   0  0  0  0  0  0  0  0  0  0  0  0
    6.9841    5.6776    0.0000 H   0  0  0  0  0  0  0  0  0  0  0  0
    6.5856    4.9873    0.0000 H   0  0  0  0  0  0  0  0  0  0  0  0
    8.2742    5.0124    0.0000 H   0  0  0  0  0  0  0  0  0  0  0  0
    8.6728    5.7027    0.0000 H   0  0  0  0  0  0  0  0  0  0  0  0
    8.5991    6.9050    0.0000 H   0  0  0  0  0  0  0  0  0  0  0  0
  1 17  1  0  0  0  0
  1 18  1  0  0  0  0
  2 19  1  0  0  0  0
  2 20  1  0  0  0  0
  3 21  1  0  0  0  0
  3 51  1  0  0  0  0
  4  5  1  0  0  0  0
  4  6  1  0  0  0  0
  4 22  1  0  0  0  0
  4 23  1  0  0  0  0
  5  7  1  0  0  0  0
  5 24  1  0  0  0  0
  5 25  1  0  0  0  0
  6  8  1  0  0  0  0
  6 26  1  0  0  0  0
  6 27  1  0  0  0  0
  7  9  1  0  0  0  0
  7 28  1  0  0  0  0
  7 29  1  0  0  0  0
  8 10  1  0  0  0  0
  8 30  1  0  0  0  0
  8 31  1  0  0  0  0
  9 11  1  0  0  0  0
  9 32  1  0  0  0  0
  9 33  1  0  0  0  0
 10 12  1  0  0  0  0
 10 34  1  0  0  0  0
 10 35  1  0  0  0  0
 11 13  2  0  0  0  0
 11 14  1  0  0  0  0
 12 36  1  0  0  0  0
 12 37  1  0  0  0  0
 12 38  1  0  0  0  0
 13 15  1  0  0  0  0
 13 39  1  0  0  0  0
 14 16  2  0  0  0  0
 14 40  1  0  0  0  0
 15 17  2  0  0  0  0
 15 41  1  0  0  0  0
 16 17  1  0  0  0  0
 16 42  1  0  0  0  0
 18 19  1  0  0  0  0
 18 43  1  0  0  0  0
 18 44  1  0  0  0  0
 19 45  1  0  0  0  0
 19 46  1  0  0  0  0
 20 21  1  0  0  0  0
 20 47  1  0  0  0  0
 20 48  1  0  0  0  0
 21 49  1  0  0  0  0
 21 50  1  0  0  0  0
M  END
> <PUBCHEM_COMPOUND_CID>
14694166

> <PUBCHEM_COMPOUND_CANONICALIZED>
1

> <PUBCHEM_CACTVS_COMPLEXITY>
213

> <PUBCHEM_CACTVS_HBOND_ACCEPTOR>
3

> <PUBCHEM_CACTVS_HBOND_DONOR>
1

> <PUBCHEM_CACTVS_ROTATABLE_BOND>
13

> <PUBCHEM_CACTVS_SUBSKEYS>
AAADceB4MAAAAAAAAAAAAAAAAAAAAAAAAAAwAAAAAAAAAAABAAAAGgAACAAADASgmAIyBoAABgCAAiBCAAACCAAgIAAIiAAGCIgNNiKEMRqCOCCkwBELqAeAwOAOIAAAAAAAAABAAAAAAAAAAAAAAAAAAA==

> <PUBCHEM_IUPAC_OPENEYE_NAME>
2-[2-(4-octylphenoxy)ethoxy]ethanol

> <PUBCHEM_IUPAC_CAS_NAME>
2-[2-(4-octylphenoxy)ethoxy]ethanol

> <PUBCHEM_IUPAC_NAME_MARKUP>
2-[2-(4-octylphenoxy)ethoxy]ethanol

> <PUBCHEM_IUPAC_NAME>
2-[2-(4-octylphenoxy)ethoxy]ethanol

> <PUBCHEM_IUPAC_SYSTEMATIC_NAME>
2-[2-(4-octylphenoxy)ethoxy]ethanol

> <PUBCHEM_IUPAC_TRADITIONAL_NAME>
2-[2-(4-octylphenoxy)ethoxy]ethanol

> <PUBCHEM_IUPAC_INCHI>
InChI=1S/C18H30O3/c1-2-3-4-5-6-7-8-17-9-11-18(12-10-17)21-16-15-20-14-13-19/h9-12,19H,2-8,13-16H2,1H3

> <PUBCHEM_IUPAC_INCHIKEY>
NMTRTIUWHYPKTQ-UHFFFAOYSA-N

> <PUBCHEM_XLOGP3_AA>
5.1

> <PUBCHEM_EXACT_MASS>
294.21949481

> <PUBCHEM_MOLECULAR_FORMULA>
C18H30O3

> <PUBCHEM_MOLECULAR_WEIGHT>
294.4

> <PUBCHEM_SMILES>
CCCCCCCCC1=CC=C(C=C1)OCCOCCO

> <PUBCHEM_CONNECTIVITY_SMILES>
CCCCCCCCC1=CC=C(C=C1)OCCOCCO

> <PUBCHEM_CACTVS_TPSA>
38.7

> <PUBCHEM_MONOISOTOPIC_WEIGHT>
294.21949481

> <PUBCHEM_TOTAL_CHARGE>
0

> <PUBCHEM_HEAVY_ATOM_COUNT>
21

> <PUBCHEM_ATOM_DEF_STEREO_COUNT>
0

> <PUBCHEM_ATOM_UDEF_STEREO_COUNT>
0

> <PUBCHEM_BOND_DEF_STEREO_COUNT>
0

> <PUBCHEM_BOND_UDEF_STEREO_COUNT>
0

> <PUBCHEM_ISOTOPIC_ATOM_COUNT>
0

> <PUBCHEM_COMPONENT_COUNT>
1

> <PUBCHEM_CACTVS_TAUTO_COUNT>
-1

> <PUBCHEM_COORDINATE_TYPE>
1
5
255

> <PUBCHEM_BONDANNOTATIONS>
11  13  8
11  14  8
13  15  8
14  16  8
15  17  8
16  17  8

$$$$
