14692718
  -OEChem-05122608472D

110113  0     0  0  0  0  0  0999 V2000
   10.7942    1.2500    0.0000 S   0  0  0  0  0  0  0  0  0  0  0  0
    6.4641   -1.2500    0.0000 S   0  0  0  0  0  0  0  0  0  0  0  0
   14.2583   -8.7500    0.0000 S   0  0  0  0  0  0  0  0  0  0  0  0
    3.0000    8.7500    0.0000 S   0  0  0  0  0  0  0  0  0  0  0  0
   15.1244  -10.2500    0.0000 Na  0  3  0  0  0  0  0  0  0  0  0  0
    2.1340   10.2500    0.0000 Na  0  3  0  0  0  0  0  0  0  0  0  0
    5.5981   -2.7500    0.0000 Na  0  3  0  0  0  0  0  0  0  0  0  0
   11.6603    2.7500    0.0000 Na  0  3  0  0  0  0  0  0  0  0  0  0
    9.0622   -5.7500    0.0000 O   0  0  0  0  0  0  0  0  0  0  0  0
    8.1962    5.7500    0.0000 O   0  0  0  0  0  0  0  0  0  0  0  0
   10.7942    2.2500    0.0000 O   0  5  0  0  0  0  0  0  0  0  0  0
    6.4641   -2.2500    0.0000 O   0  5  0  0  0  0  0  0  0  0  0  0
   11.7942    1.2500    0.0000 O   0  0  0  0  0  0  0  0  0  0  0  0
    9.7942    1.2500    0.0000 O   0  0  0  0  0  0  0  0  0  0  0  0
    5.4641   -1.2500    0.0000 O   0  0  0  0  0  0  0  0  0  0  0  0
    7.4641   -1.2500    0.0000 O   0  0  0  0  0  0  0  0  0  0  0  0
   14.2583   -9.7500    0.0000 O   0  5  0  0  0  0  0  0  0  0  0  0
    3.0000    9.7500    0.0000 O   0  5  0  0  0  0  0  0  0  0  0  0
   15.2583   -8.7500    0.0000 O   0  0  0  0  0  0  0  0  0  0  0  0
   13.2583   -8.7500    0.0000 O   0  0  0  0  0  0  0  0  0  0  0  0
    2.0000    8.7500    0.0000 O   0  0  0  0  0  0  0  0  0  0  0  0
    4.0000    8.7500    0.0000 O   0  0  0  0  0  0  0  0  0  0  0  0
   10.7942   -4.7500    0.0000 N   0  0  0  0  0  0  0  0  0  0  0  0
    6.4641    4.7500    0.0000 N   0  0  0  0  0  0  0  0  0  0  0  0
   11.6603   -3.2500    0.0000 N   0  0  0  0  0  0  0  0  0  0  0  0
    5.5981    3.2500    0.0000 N   0  0  0  0  0  0  0  0  0  0  0  0
   12.5263   -4.7500    0.0000 N   0  0  0  0  0  0  0  0  0  0  0  0
    4.7321    4.7500    0.0000 N   0  0  0  0  0  0  0  0  0  0  0  0
   12.5263   -1.7500    0.0000 N   0  0  0  0  0  0  0  0  0  0  0  0
    4.7321    1.7500    0.0000 N   0  0  0  0  0  0  0  0  0  0  0  0
   13.3923   -3.2500    0.0000 N   0  0  0  0  0  0  0  0  0  0  0  0
    3.8660    3.2500    0.0000 N   0  0  0  0  0  0  0  0  0  0  0  0
   14.2583   -4.7500    0.0000 N   0  0  0  0  0  0  0  0  0  0  0  0
    3.0000    4.7500    0.0000 N   0  0  0  0  0  0  0  0  0  0  0  0
   10.7942   -5.7500    0.0000 C   0  0  0  0  0  0  0  0  0  0  0  0
    9.9282   -4.2500    0.0000 C   0  0  0  0  0  0  0  0  0  0  0  0
    6.4641    5.7500    0.0000 C   0  0  0  0  0  0  0  0  0  0  0  0
    7.3301    4.2500    0.0000 C   0  0  0  0  0  0  0  0  0  0  0  0
    9.9282   -6.2500    0.0000 C   0  0  0  0  0  0  0  0  0  0  0  0
    9.0622   -4.7500    0.0000 C   0  0  0  0  0  0  0  0  0  0  0  0
    7.3301    6.2500    0.0000 C   0  0  0  0  0  0  0  0  0  0  0  0
    8.1962    4.7500    0.0000 C   0  0  0  0  0  0  0  0  0  0  0  0
   11.6603   -4.2500    0.0000 C   0  0  0  0  0  0  0  0  0  0  0  0
    5.5981    4.2500    0.0000 C   0  0  0  0  0  0  0  0  0  0  0  0
   12.5263   -2.7500    0.0000 C   0  0  0  0  0  0  0  0  0  0  0  0
    4.7321    2.7500    0.0000 C   0  0  0  0  0  0  0  0  0  0  0  0
   13.3923   -4.2500    0.0000 C   0  0  0  0  0  0  0  0  0  0  0  0
    3.8660    4.2500    0.0000 C   0  0  0  0  0  0  0  0  0  0  0  0
   11.6603   -1.2500    0.0000 C   0  0  0  0  0  0  0  0  0  0  0  0
    5.5981    1.2500    0.0000 C   0  0  0  0  0  0  0  0  0  0  0  0
    9.9282   -0.2500    0.0000 C   0  0  0  0  0  0  0  0  0  0  0  0
    7.3301    0.2500    0.0000 C   0  0  0  0  0  0  0  0  0  0  0  0
   10.7942    0.2500    0.0000 C   0  0  0  0  0  0  0  0  0  0  0  0
    6.4641   -0.2500    0.0000 C   0  0  0  0  0  0  0  0  0  0  0  0
   11.6603   -0.2500    0.0000 C   0  0  0  0  0  0  0  0  0  0  0  0
    5.5981    0.2500    0.0000 C   0  0  0  0  0  0  0  0  0  0  0  0
   10.7942   -1.7500    0.0000 C   0  0  0  0  0  0  0  0  0  0  0  0
    6.4641    1.7500    0.0000 C   0  0  0  0  0  0  0  0  0  0  0  0
    9.9282   -1.2500    0.0000 C   0  0  0  0  0  0  0  0  0  0  0  0
    7.3301    1.2500    0.0000 C   0  0  0  0  0  0  0  0  0  0  0  0
    9.0622    0.2500    0.0000 C   0  0  0  0  0  0  0  0  0  0  0  0
    8.1962   -0.2500    0.0000 C   0  0  0  0  0  0  0  0  0  0  0  0
   14.2583   -5.7500    0.0000 C   0  0  0  0  0  0  0  0  0  0  0  0
    3.0000    5.7500    0.0000 C   0  0  0  0  0  0  0  0  0  0  0  0
   13.3923   -6.2500    0.0000 C   0  0  0  0  0  0  0  0  0  0  0  0
    2.1340    6.2500    0.0000 C   0  0  0  0  0  0  0  0  0  0  0  0
   15.1244   -6.2500    0.0000 C   0  0  0  0  0  0  0  0  0  0  0  0
    3.8660    6.2500    0.0000 C   0  0  0  0  0  0  0  0  0  0  0  0
   14.2583   -7.7500    0.0000 C   0  0  0  0  0  0  0  0  0  0  0  0
    3.0000    7.7500    0.0000 C   0  0  0  0  0  0  0  0  0  0  0  0
   13.3923   -7.2500    0.0000 C   0  0  0  0  0  0  0  0  0  0  0  0
    2.1340    7.2500    0.0000 C   0  0  0  0  0  0  0  0  0  0  0  0
   15.1244   -7.2500    0.0000 C   0  0  0  0  0  0  0  0  0  0  0  0
    3.8660    7.2500    0.0000 C   0  0  0  0  0  0  0  0  0  0  0  0
   11.0063   -6.3326    0.0000 H   0  0  0  0  0  0  0  0  0  0  0  0
   11.4048   -5.6423    0.0000 H   0  0  0  0  0  0  0  0  0  0  0  0
   10.3267   -3.7751    0.0000 H   0  0  0  0  0  0  0  0  0  0  0  0
    9.5297   -3.7751    0.0000 H   0  0  0  0  0  0  0  0  0  0  0  0
    6.2521    6.3326    0.0000 H   0  0  0  0  0  0  0  0  0  0  0  0
    5.8535    5.6423    0.0000 H   0  0  0  0  0  0  0  0  0  0  0  0
    6.9316    3.7751    0.0000 H   0  0  0  0  0  0  0  0  0  0  0  0
    7.7287    3.7751    0.0000 H   0  0  0  0  0  0  0  0  0  0  0  0
    9.5297   -6.7250    0.0000 H   0  0  0  0  0  0  0  0  0  0  0  0
   10.3267   -6.7250    0.0000 H   0  0  0  0  0  0  0  0  0  0  0  0
    8.8501   -4.1674    0.0000 H   0  0  0  0  0  0  0  0  0  0  0  0
    8.4516   -4.8577    0.0000 H   0  0  0  0  0  0  0  0  0  0  0  0
    7.7287    6.7250    0.0000 H   0  0  0  0  0  0  0  0  0  0  0  0
    6.9316    6.7250    0.0000 H   0  0  0  0  0  0  0  0  0  0  0  0
    8.4082    4.1674    0.0000 H   0  0  0  0  0  0  0  0  0  0  0  0
    8.8067    4.8577    0.0000 H   0  0  0  0  0  0  0  0  0  0  0  0
   13.0632   -1.4400    0.0000 H   0  0  0  0  0  0  0  0  0  0  0  0
    4.1951    1.4400    0.0000 H   0  0  0  0  0  0  0  0  0  0  0  0
   12.1972    0.0600    0.0000 H   0  0  0  0  0  0  0  0  0  0  0  0
    5.0611   -0.0600    0.0000 H   0  0  0  0  0  0  0  0  0  0  0  0
   14.7953   -4.4400    0.0000 H   0  0  0  0  0  0  0  0  0  0  0  0
    2.4631    4.4400    0.0000 H   0  0  0  0  0  0  0  0  0  0  0  0
   10.7942   -2.3700    0.0000 H   0  0  0  0  0  0  0  0  0  0  0  0
    6.4641    2.3700    0.0000 H   0  0  0  0  0  0  0  0  0  0  0  0
    9.3913   -1.5600    0.0000 H   0  0  0  0  0  0  0  0  0  0  0  0
    7.8671    1.5600    0.0000 H   0  0  0  0  0  0  0  0  0  0  0  0
    9.0622    0.8700    0.0000 H   0  0  0  0  0  0  0  0  0  0  0  0
    8.1962   -0.8700    0.0000 H   0  0  0  0  0  0  0  0  0  0  0  0
   12.8554   -5.9400    0.0000 H   0  0  0  0  0  0  0  0  0  0  0  0
    1.5970    5.9400    0.0000 H   0  0  0  0  0  0  0  0  0  0  0  0
   15.6613   -5.9400    0.0000 H   0  0  0  0  0  0  0  0  0  0  0  0
    4.4030    5.9400    0.0000 H   0  0  0  0  0  0  0  0  0  0  0  0
   12.8554   -7.5600    0.0000 H   0  0  0  0  0  0  0  0  0  0  0  0
    1.5970    7.5600    0.0000 H   0  0  0  0  0  0  0  0  0  0  0  0
   15.6613   -7.5600    0.0000 H   0  0  0  0  0  0  0  0  0  0  0  0
    4.4030    7.5600    0.0000 H   0  0  0  0  0  0  0  0  0  0  0  0
  1 11  1  0  0  0  0
  1 13  2  0  0  0  0
  1 14  2  0  0  0  0
  1 53  1  0  0  0  0
  2 12  1  0  0  0  0
  2 15  2  0  0  0  0
  2 16  2  0  0  0  0
  2 54  1  0  0  0  0
  3 17  1  0  0  0  0
  3 19  2  0  0  0  0
  3 20  2  0  0  0  0
  3 69  1  0  0  0  0
  4 18  1  0  0  0  0
  4 21  2  0  0  0  0
  4 22  2  0  0  0  0
  4 70  1  0  0  0  0
  9 39  1  0  0  0  0
  9 40  1  0  0  0  0
 10 41  1  0  0  0  0
 10 42  1  0  0  0  0
 23 35  1  0  0  0  0
 23 36  1  0  0  0  0
 23 43  1  0  0  0  0
 24 37  1  0  0  0  0
 24 38  1  0  0  0  0
 24 44  1  0  0  0  0
 25 43  1  0  0  0  0
 25 45  2  0  0  0  0
 26 44  1  0  0  0  0
 26 46  2  0  0  0  0
 27 43  2  0  0  0  0
 27 47  1  0  0  0  0
 28 44  2  0  0  0  0
 28 48  1  0  0  0  0
 29 45  1  0  0  0  0
 29 49  1  0  0  0  0
 29 91  1  0  0  0  0
 30 46  1  0  0  0  0
 30 50  1  0  0  0  0
 30 92  1  0  0  0  0
 31 45  1  0  0  0  0
 31 47  2  0  0  0  0
 32 46  1  0  0  0  0
 32 48  2  0  0  0  0
 33 47  1  0  0  0  0
 33 63  1  0  0  0  0
 33 95  1  0  0  0  0
 34 48  1  0  0  0  0
 34 64  1  0  0  0  0
 34 96  1  0  0  0  0
 35 39  1  0  0  0  0
 35 75  1  0  0  0  0
 35 76  1  0  0  0  0
 36 40  1  0  0  0  0
 36 77  1  0  0  0  0
 36 78  1  0  0  0  0
 37 41  1  0  0  0  0
 37 79  1  0  0  0  0
 37 80  1  0  0  0  0
 38 42  1  0  0  0  0
 38 81  1  0  0  0  0
 38 82  1  0  0  0  0
 39 83  1  0  0  0  0
 39 84  1  0  0  0  0
 40 85  1  0  0  0  0
 40 86  1  0  0  0  0
 41 87  1  0  0  0  0
 41 88  1  0  0  0  0
 42 89  1  0  0  0  0
 42 90  1  0  0  0  0
 49 55  2  0  0  0  0
 49 57  1  0  0  0  0
 50 56  2  0  0  0  0
 50 58  1  0  0  0  0
 51 53  2  0  0  0  0
 51 59  1  0  0  0  0
 51 61  1  0  0  0  0
 52 54  2  0  0  0  0
 52 60  1  0  0  0  0
 52 62  1  0  0  0  0
 53 55  1  0  0  0  0
 54 56  1  0  0  0  0
 55 93  1  0  0  0  0
 56 94  1  0  0  0  0
 57 59  2  0  0  0  0
 57 97  1  0  0  0  0
 58 60  2  0  0  0  0
 58 98  1  0  0  0  0
 59 99  1  0  0  0  0
 60100  1  0  0  0  0
 61 62  2  0  0  0  0
 61101  1  0  0  0  0
 62102  1  0  0  0  0
 63 65  2  0  0  0  0
 63 67  1  0  0  0  0
 64 66  2  0  0  0  0
 64 68  1  0  0  0  0
 65 71  1  0  0  0  0
 65103  1  0  0  0  0
 66 72  1  0  0  0  0
 66104  1  0  0  0  0
 67 73  2  0  0  0  0
 67105  1  0  0  0  0
 68 74  2  0  0  0  0
 68106  1  0  0  0  0
 69 71  2  0  0  0  0
 69 73  1  0  0  0  0
 70 72  2  0  0  0  0
 70 74  1  0  0  0  0
 71107  1  0  0  0  0
 72108  1  0  0  0  0
 73109  1  0  0  0  0
 74110  1  0  0  0  0
M  CHG  8   5   1   6   1   7   1   8   1  11  -1  12  -1  17  -1  18  -1
M  END
> <PUBCHEM_COMPOUND_CID>
14692718

> <PUBCHEM_COMPOUND_CANONICALIZED>
1

> <PUBCHEM_CACTVS_COMPLEXITY>
1970

> <PUBCHEM_CACTVS_HBOND_ACCEPTOR>
26

> <PUBCHEM_CACTVS_HBOND_DONOR>
4

> <PUBCHEM_CACTVS_ROTATABLE_BOND>
12

> <PUBCHEM_CACTVS_SUBSKEYS>
AAADcfB//DBwAAAAAAAAAAAAAAAAAAAAAAA8ePHiAAAAAAAB9AAAHgQQAAAADAjh2AYx0YfIFAKgAiRCZHDCAEkhAoAJiBgIZIiKKCLAmZGHIAxokALYyCcQgAAOCAQAACAEAAAQCAAAQAgAAAAAAAAAAA==

> <PUBCHEM_IUPAC_OPENEYE_NAME>
tetrasodium;5-[[4-morpholino-6-(4-sulfonatoanilino)-1,3,5-triazin-2-yl]amino]-2-[(E)-2-[4-[[4-morpholino-6-(4-sulfonatoanilino)-1,3,5-triazin-2-yl]amino]-2-sulfonato-phenyl]vinyl]benzenesulfonate

> <PUBCHEM_IUPAC_CAS_NAME>
tetrasodium;5-[[4-(4-morpholinyl)-6-(4-sulfonatoanilino)-1,3,5-triazin-2-yl]amino]-2-[(E)-2-[4-[[4-(4-morpholinyl)-6-(4-sulfonatoanilino)-1,3,5-triazin-2-yl]amino]-2-sulfonatophenyl]ethenyl]benzenesulfonate

> <PUBCHEM_IUPAC_NAME_MARKUP>
tetrasodium;5-[[4-morpholin-4-yl-6-(4-sulfonatoanilino)-1,3,5-triazin-2-yl]amino]-2-[(<I>E</I>)-2-[4-[[4-morpholin-4-yl-6-(4-sulfonatoanilino)-1,3,5-triazin-2-yl]amino]-2-sulfonatophenyl]ethenyl]benzenesulfonate

> <PUBCHEM_IUPAC_NAME>
tetrasodium;5-[[4-morpholin-4-yl-6-(4-sulfonatoanilino)-1,3,5-triazin-2-yl]amino]-2-[(E)-2-[4-[[4-morpholin-4-yl-6-(4-sulfonatoanilino)-1,3,5-triazin-2-yl]amino]-2-sulfonatophenyl]ethenyl]benzenesulfonate

> <PUBCHEM_IUPAC_SYSTEMATIC_NAME>
tetrasodium;5-[[4-morpholin-4-yl-6-[(4-sulfonatophenyl)amino]-1,3,5-triazin-2-yl]amino]-2-[(E)-2-[4-[[4-morpholin-4-yl-6-[(4-sulfonatophenyl)amino]-1,3,5-triazin-2-yl]amino]-2-sulfonato-phenyl]ethenyl]benzenesulfonate

> <PUBCHEM_IUPAC_TRADITIONAL_NAME>
tetrasodium;5-[[4-morpholino-6-(4-sulfonatoanilino)-s-triazin-2-yl]amino]-2-[(E)-2-[4-[[4-morpholino-6-(4-sulfonatoanilino)-s-triazin-2-yl]amino]-2-sulfonato-phenyl]vinyl]besylate

> <PUBCHEM_IUPAC_INCHI>
InChI=1S/C40H40N12O14S4.4Na/c53-67(54,55)31-11-7-27(8-12-31)41-35-45-37(49-39(47-35)51-15-19-65-20-16-51)43-29-5-3-25(33(23-29)69(59,60)61)1-2-26-4-6-30(24-34(26)70(62,63)64)44-38-46-36(48-40(50-38)52-17-21-66-22-18-52)42-28-9-13-32(14-10-28)68(56,57)58;;;;/h1-14,23-24H,15-22H2,(H,53,54,55)(H,56,57,58)(H,59,60,61)(H,62,63,64)(H2,41,43,45,47,49)(H2,42,44,46,48,50);;;;/q;4*+1/p-4/b2-1+;;;;

> <PUBCHEM_IUPAC_INCHIKEY>
UOLRZRKZXIOJRT-MBCFVHIPSA-J

> <PUBCHEM_EXACT_MASS>
1128.0947557

> <PUBCHEM_MOLECULAR_FORMULA>
C40H36N12Na4O14S4

> <PUBCHEM_MOLECULAR_WEIGHT>
1129.0

> <PUBCHEM_SMILES>
C1COCCN1C2=NC(=NC(=N2)NC3=CC(=C(C=C3)/C=C/C4=C(C=C(C=C4)NC5=NC(=NC(=N5)NC6=CC=C(C=C6)S(=O)(=O)[O-])N7CCOCC7)S(=O)(=O)[O-])S(=O)(=O)[O-])NC8=CC=C(C=C8)S(=O)(=O)[O-].[Na+].[Na+].[Na+].[Na+]

> <PUBCHEM_CONNECTIVITY_SMILES>
C1COCCN1C2=NC(=NC(=N2)NC3=CC(=C(C=C3)C=CC4=C(C=C(C=C4)NC5=NC(=NC(=N5)NC6=CC=C(C=C6)S(=O)(=O)[O-])N7CCOCC7)S(=O)(=O)[O-])S(=O)(=O)[O-])NC8=CC=C(C=C8)S(=O)(=O)[O-].[Na+].[Na+].[Na+].[Na+]

> <PUBCHEM_CACTVS_TPSA>
413

> <PUBCHEM_MONOISOTOPIC_WEIGHT>
1128.0947557

> <PUBCHEM_TOTAL_CHARGE>
0

> <PUBCHEM_HEAVY_ATOM_COUNT>
74

> <PUBCHEM_ATOM_DEF_STEREO_COUNT>
0

> <PUBCHEM_ATOM_UDEF_STEREO_COUNT>
0

> <PUBCHEM_BOND_DEF_STEREO_COUNT>
1

> <PUBCHEM_BOND_UDEF_STEREO_COUNT>
0

> <PUBCHEM_ISOTOPIC_ATOM_COUNT>
0

> <PUBCHEM_COMPONENT_COUNT>
5

> <PUBCHEM_CACTVS_TAUTO_COUNT>
-1

> <PUBCHEM_COORDINATE_TYPE>
1
5
255

> <PUBCHEM_BONDANNOTATIONS>
25  43  8
25  45  8
26  44  8
26  46  8
27  43  8
27  47  8
28  44  8
28  48  8
31  45  8
31  47  8
32  46  8
32  48  8
49  55  8
49  57  8
50  56  8
50  58  8
51  53  8
51  59  8
52  54  8
52  60  8
53  55  8
54  56  8
57  59  8
58  60  8
63  65  8
63  67  8
64  66  8
64  68  8
65  71  8
66  72  8
67  73  8
68  74  8
69  71  8
69  73  8
70  72  8
70  74  8

$$$$
