14838848
  -OEChem-05122609512D

 34 35  0     0  0  0  0  0  0999 V2000
    5.5443    0.9266    0.0000 C   0  0  0  0  0  0  0  0  0  0  0  0
    6.1279    0.1218    0.0000 C   0  0  0  0  0  0  0  0  0  0  0  0
    4.5981    0.6218    0.0000 C   0  0  0  0  0  0  0  0  0  0  0  0
    5.5443   -0.6829    0.0000 C   0  0  0  0  0  0  0  0  0  0  0  0
    4.5981   -0.3782    0.0000 C   0  0  0  0  0  0  0  0  0  0  0  0
    6.3543    1.5130    0.0000 C   0  0  0  0  0  0  0  0  0  0  0  0
    5.2369    1.8782    0.0000 C   0  0  0  0  0  0  0  0  0  0  0  0
    3.7320   -0.8782    0.0000 C   0  0  0  0  0  0  0  0  0  0  0  0
    3.7320    1.1218    0.0000 C   0  0  0  0  0  0  0  0  0  0  0  0
    2.8660   -0.3782    0.0000 C   0  0  0  0  0  0  0  0  0  0  0  0
    2.8660    0.6218    0.0000 C   0  0  0  0  0  0  0  0  0  0  0  0
    3.7320   -1.8782    0.0000 C   0  0  0  0  0  0  0  0  0  0  0  0
    2.0000   -0.8782    0.0000 C   0  0  0  0  0  0  0  0  0  0  0  0
    2.0000    1.1218    0.0000 C   0  0  0  0  0  0  0  0  0  0  0  0
    6.5888   -0.2929    0.0000 H   0  0  0  0  0  0  0  0  0  0  0  0
    6.5888    0.5366    0.0000 H   0  0  0  0  0  0  0  0  0  0  0  0
    5.2933   -1.2498    0.0000 H   0  0  0  0  0  0  0  0  0  0  0  0
    6.0817   -0.9921    0.0000 H   0  0  0  0  0  0  0  0  0  0  0  0
    6.7179    1.0107    0.0000 H   0  0  0  0  0  0  0  0  0  0  0  0
    6.8566    1.8765    0.0000 H   0  0  0  0  0  0  0  0  0  0  0  0
    5.9908    2.0152    0.0000 H   0  0  0  0  0  0  0  0  0  0  0  0
    5.8269    2.0687    0.0000 H   0  0  0  0  0  0  0  0  0  0  0  0
    5.0464    2.4682    0.0000 H   0  0  0  0  0  0  0  0  0  0  0  0
    4.6469    1.6876    0.0000 H   0  0  0  0  0  0  0  0  0  0  0  0
    3.7320    1.7418    0.0000 H   0  0  0  0  0  0  0  0  0  0  0  0
    3.1120   -1.8782    0.0000 H   0  0  0  0  0  0  0  0  0  0  0  0
    3.7320   -2.4982    0.0000 H   0  0  0  0  0  0  0  0  0  0  0  0
    4.3520   -1.8782    0.0000 H   0  0  0  0  0  0  0  0  0  0  0  0
    1.6900   -0.3412    0.0000 H   0  0  0  0  0  0  0  0  0  0  0  0
    1.4631   -1.1882    0.0000 H   0  0  0  0  0  0  0  0  0  0  0  0
    2.3100   -1.4151    0.0000 H   0  0  0  0  0  0  0  0  0  0  0  0
    2.3100    1.6588    0.0000 H   0  0  0  0  0  0  0  0  0  0  0  0
    1.4631    1.4318    0.0000 H   0  0  0  0  0  0  0  0  0  0  0  0
    1.6900    0.5849    0.0000 H   0  0  0  0  0  0  0  0  0  0  0  0
  1  2  1  0  0  0  0
  1  3  1  0  0  0  0
  1  6  1  0  0  0  0
  1  7  1  0  0  0  0
  2  4  1  0  0  0  0
  2 15  1  0  0  0  0
  2 16  1  0  0  0  0
  3  5  2  0  0  0  0
  3  9  1  0  0  0  0
  4  5  1  0  0  0  0
  4 17  1  0  0  0  0
  4 18  1  0  0  0  0
  5  8  1  0  0  0  0
  6 19  1  0  0  0  0
  6 20  1  0  0  0  0
  6 21  1  0  0  0  0
  7 22  1  0  0  0  0
  7 23  1  0  0  0  0
  7 24  1  0  0  0  0
  8 10  2  0  0  0  0
  8 12  1  0  0  0  0
  9 11  2  0  0  0  0
  9 25  1  0  0  0  0
 10 11  1  0  0  0  0
 10 13  1  0  0  0  0
 11 14  1  0  0  0  0
 12 26  1  0  0  0  0
 12 27  1  0  0  0  0
 12 28  1  0  0  0  0
 13 29  1  0  0  0  0
 13 30  1  0  0  0  0
 13 31  1  0  0  0  0
 14 32  1  0  0  0  0
 14 33  1  0  0  0  0
 14 34  1  0  0  0  0
M  END
> <PUBCHEM_COMPOUND_CID>
14838848

> <PUBCHEM_COMPOUND_CANONICALIZED>
1

> <PUBCHEM_CACTVS_COMPLEXITY>
216

> <PUBCHEM_CACTVS_HBOND_ACCEPTOR>
0

> <PUBCHEM_CACTVS_HBOND_DONOR>
0

> <PUBCHEM_CACTVS_ROTATABLE_BOND>
0

> <PUBCHEM_CACTVS_SUBSKEYS>
AAADceBwAAAAAAAAAAAAAAAAAAAAAYAAAAAwAAAAAAAAAGABAAAAGAAAAAAADgCAGAAyAIAAAACAAiBCAAACAAAgAAAAiAAAAIgIICKAERCAIAAggAAIiAcAgMAPwAACAAAQAACAAAQAACAAAQAACAAAAA==

> <PUBCHEM_IUPAC_OPENEYE_NAME>
1,1,4,5,6-pentamethylindane

> <PUBCHEM_IUPAC_CAS_NAME>
3,3,5,6,7-pentamethyl-1,2-dihydroindene

> <PUBCHEM_IUPAC_NAME_MARKUP>
3,3,5,6,7-pentamethyl-1,2-dihydroindene

> <PUBCHEM_IUPAC_NAME>
3,3,5,6,7-pentamethyl-1,2-dihydroindene

> <PUBCHEM_IUPAC_SYSTEMATIC_NAME>
3,3,5,6,7-pentamethyl-1,2-dihydroindene

> <PUBCHEM_IUPAC_TRADITIONAL_NAME>
1,1,4,5,6-pentamethylindane

> <PUBCHEM_IUPAC_INCHI>
InChI=1S/C14H20/c1-9-8-13-12(11(3)10(9)2)6-7-14(13,4)5/h8H,6-7H2,1-5H3

> <PUBCHEM_IUPAC_INCHIKEY>
MFOOETCJBLULPZ-UHFFFAOYSA-N

> <PUBCHEM_XLOGP3_AA>
4.7

> <PUBCHEM_EXACT_MASS>
188.156500638

> <PUBCHEM_MOLECULAR_FORMULA>
C14H20

> <PUBCHEM_MOLECULAR_WEIGHT>
188.31

> <PUBCHEM_SMILES>
CC1=CC2=C(CCC2(C)C)C(=C1C)C

> <PUBCHEM_CONNECTIVITY_SMILES>
CC1=CC2=C(CCC2(C)C)C(=C1C)C

> <PUBCHEM_CACTVS_TPSA>
0

> <PUBCHEM_MONOISOTOPIC_WEIGHT>
188.156500638

> <PUBCHEM_TOTAL_CHARGE>
0

> <PUBCHEM_HEAVY_ATOM_COUNT>
14

> <PUBCHEM_ATOM_DEF_STEREO_COUNT>
0

> <PUBCHEM_ATOM_UDEF_STEREO_COUNT>
0

> <PUBCHEM_BOND_DEF_STEREO_COUNT>
0

> <PUBCHEM_BOND_UDEF_STEREO_COUNT>
0

> <PUBCHEM_ISOTOPIC_ATOM_COUNT>
0

> <PUBCHEM_COMPONENT_COUNT>
1

> <PUBCHEM_CACTVS_TAUTO_COUNT>
-1

> <PUBCHEM_COORDINATE_TYPE>
1
5
255

> <PUBCHEM_BONDANNOTATIONS>
10  11  8
3  5  8
3  9  8
5  8  8
8  10  8
9  11  8

$$$$
