14865247
  -OEChem-05122609562D

 30 31  0     1  0  0  0  0  0999 V2000
    5.2780    2.1718    0.0000 O   0  0  0  0  0  0  0  0  0  0  0  0
    7.4136    0.6803    0.0000 O   0  0  0  0  0  0  0  0  0  0  0  0
    4.5697   -1.6418    0.0000 O   0  0  0  0  0  0  0  0  0  0  0  0
    2.7660   -0.4253    0.0000 O   0  0  0  0  0  0  0  0  0  0  0  0
    3.3657    1.6660    0.0000 O   0  0  0  0  0  0  0  0  0  0  0  0
    5.7558    0.2232    0.0000 C   0  0  1  0  0  0  0  0  0  0  0  0
    4.5348   -0.6424    0.0000 C   0  0  2  0  0  0  0  0  0  0  0  0
    3.7057   -0.0833    0.0000 C   0  0  1  0  0  0  0  0  0  0  0  0
    3.9814    0.8780    0.0000 C   0  0  2  0  0  0  0  0  0  0  0  0
    6.0146    1.1891    0.0000 C   0  0  1  0  0  0  0  0  0  0  0  0
    7.1547   -0.2856    0.0000 C   0  0  0  0  0  0  0  0  0  0  0  0
    3.7216   -2.1718    0.0000 C   0  0  0  0  0  0  0  0  0  0  0  0
    2.0000    0.2175    0.0000 C   0  0  0  0  0  0  0  0  0  0  0  0
    2.3754    1.5268    0.0000 C   0  0  0  0  0  0  0  0  0  0  0  0
    5.5358   -0.5978    0.0000 H   0  0  0  0  0  0  0  0  0  0  0  0
    3.9925   -0.9430    0.0000 H   0  0  0  0  0  0  0  0  0  0  0  0
    3.6302   -0.6986    0.0000 H   0  0  0  0  0  0  0  0  0  0  0  0
    3.3728    0.7597    0.0000 H   0  0  0  0  0  0  0  0  0  0  0  0
    6.2346    2.0102    0.0000 H   0  0  0  0  0  0  0  0  0  0  0  0
    6.9598   -0.8742    0.0000 H   0  0  0  0  0  0  0  0  0  0  0  0
    7.7487   -0.4634    0.0000 H   0  0  0  0  0  0  0  0  0  0  0  0
    3.3931   -1.6460    0.0000 H   0  0  0  0  0  0  0  0  0  0  0  0
    3.1958   -2.5003    0.0000 H   0  0  0  0  0  0  0  0  0  0  0  0
    4.0502   -2.6976    0.0000 H   0  0  0  0  0  0  0  0  0  0  0  0
    2.3985    0.6925    0.0000 H   0  0  0  0  0  0  0  0  0  0  0  0
    1.5250    0.6160    0.0000 H   0  0  0  0  0  0  0  0  0  0  0  0
    1.6015   -0.2574    0.0000 H   0  0  0  0  0  0  0  0  0  0  0  0
    2.2892    2.1408    0.0000 H   0  0  0  0  0  0  0  0  0  0  0  0
    1.7615    1.4406    0.0000 H   0  0  0  0  0  0  0  0  0  0  0  0
    2.4617    0.9129    0.0000 H   0  0  0  0  0  0  0  0  0  0  0  0
  1  6  1  0  0  0  0
  1 10  1  0  0  0  0
  2 10  1  0  0  0  0
  2 11  1  0  0  0  0
  7  3  1  1  0  0  0
  3 12  1  0  0  0  0
  8  4  1  6  0  0  0
  4 13  1  0  0  0  0
  9  5  1  1  0  0  0
  5 14  1  0  0  0  0
  6  7  1  0  0  0  0
  6 11  1  0  0  0  0
  6 15  1  1  0  0  0
  7  8  1  0  0  0  0
  7 16  1  0  0  0  0
  8  9  1  0  0  0  0
  8 17  1  0  0  0  0
  9 10  1  0  0  0  0
  9 18  1  0  0  0  0
 10 19  1  6  0  0  0
 11 20  1  0  0  0  0
 11 21  1  0  0  0  0
 12 22  1  0  0  0  0
 12 23  1  0  0  0  0
 12 24  1  0  0  0  0
 13 25  1  0  0  0  0
 13 26  1  0  0  0  0
 13 27  1  0  0  0  0
 14 28  1  0  0  0  0
 14 29  1  0  0  0  0
 14 30  1  0  0  0  0
M  END
> <PUBCHEM_COMPOUND_CID>
14865247

> <PUBCHEM_COMPOUND_CANONICALIZED>
1

> <PUBCHEM_CACTVS_COMPLEXITY>
198

> <PUBCHEM_CACTVS_HBOND_ACCEPTOR>
5

> <PUBCHEM_CACTVS_HBOND_DONOR>
0

> <PUBCHEM_CACTVS_ROTATABLE_BOND>
3

> <PUBCHEM_CACTVS_SUBSKEYS>
AAADceBwOAAAAAAAAAAAAAAAAAAAASAAAAAkAAAABIAAAAAAAAAAGgAAAAAACBSwgAMCCAAABAAAAAAAAAAAAAAAAAAAAAAAAAARAAIAAAAiAAAFAAAGAAHAYAwAAAAAAAAAAAAAAAAAAAAAAAAAAAAAAA==

> <PUBCHEM_IUPAC_OPENEYE_NAME>
(1R,2R,3S,4R,5R)-2,3,4-trimethoxy-6,8-dioxabicyclo[3.2.1]octane

> <PUBCHEM_IUPAC_CAS_NAME>
(1R,2R,3S,4R,5R)-2,3,4-trimethoxy-6,8-dioxabicyclo[3.2.1]octane

> <PUBCHEM_IUPAC_NAME_MARKUP>
(1<I>R</I>,2<I>R</I>,3<I>S</I>,4<I>R</I>,5<I>R</I>)-2,3,4-trimethoxy-6,8-dioxabicyclo[3.2.1]octane

> <PUBCHEM_IUPAC_NAME>
(1R,2R,3S,4R,5R)-2,3,4-trimethoxy-6,8-dioxabicyclo[3.2.1]octane

> <PUBCHEM_IUPAC_SYSTEMATIC_NAME>
(1R,2R,3S,4R,5R)-2,3,4-trimethoxy-6,8-dioxabicyclo[3.2.1]octane

> <PUBCHEM_IUPAC_TRADITIONAL_NAME>
(1R,2R,3S,4R,5R)-2,3,4-trimethoxy-6,8-dioxabicyclo[3.2.1]octane

> <PUBCHEM_IUPAC_INCHI>
InChI=1S/C9H16O5/c1-10-6-5-4-13-9(14-5)8(12-3)7(6)11-2/h5-9H,4H2,1-3H3/t5-,6-,7+,8-,9-/m1/s1

> <PUBCHEM_IUPAC_INCHIKEY>
ZZSLTIGBKYUBSG-SYHAXYEDSA-N

> <PUBCHEM_XLOGP3_AA>
-0.5

> <PUBCHEM_EXACT_MASS>
204.09977361

> <PUBCHEM_MOLECULAR_FORMULA>
C9H16O5

> <PUBCHEM_MOLECULAR_WEIGHT>
204.22

> <PUBCHEM_SMILES>
CO[C@@H]1[C@H]2CO[C@H](O2)[C@@H]([C@H]1OC)OC

> <PUBCHEM_CONNECTIVITY_SMILES>
COC1C2COC(O2)C(C1OC)OC

> <PUBCHEM_CACTVS_TPSA>
46.2

> <PUBCHEM_MONOISOTOPIC_WEIGHT>
204.09977361

> <PUBCHEM_TOTAL_CHARGE>
0

> <PUBCHEM_HEAVY_ATOM_COUNT>
14

> <PUBCHEM_ATOM_DEF_STEREO_COUNT>
5

> <PUBCHEM_ATOM_UDEF_STEREO_COUNT>
0

> <PUBCHEM_BOND_DEF_STEREO_COUNT>
0

> <PUBCHEM_BOND_UDEF_STEREO_COUNT>
0

> <PUBCHEM_ISOTOPIC_ATOM_COUNT>
0

> <PUBCHEM_COMPONENT_COUNT>
1

> <PUBCHEM_CACTVS_TAUTO_COUNT>
-1

> <PUBCHEM_COORDINATE_TYPE>
1
5
255

> <PUBCHEM_BONDANNOTATIONS>
10  19  6
7  3  5
8  4  6
9  5  5
6  15  5

$$$$
