14871
  -OEChem-05122608392D

 49 48  0     1  0  0  0  0  0999 V2000
   12.3923    0.0950    0.0000 O   0  0  0  0  0  0  0  0  0  0  0  0
   11.5263   -1.4050    0.0000 O   0  0  0  0  0  0  0  0  0  0  0  0
   14.1244    1.0950    0.0000 O   0  0  0  0  0  0  0  0  0  0  0  0
   15.8564    0.0950    0.0000 O   0  0  0  0  0  0  0  0  0  0  0  0
    7.1962    0.0950    0.0000 C   0  0  0  0  0  0  0  0  0  0  0  0
    6.3301   -0.4050    0.0000 C   0  0  0  0  0  0  0  0  0  0  0  0
    8.0622   -0.4050    0.0000 C   0  0  0  0  0  0  0  0  0  0  0  0
    5.4641    0.0950    0.0000 C   0  0  0  0  0  0  0  0  0  0  0  0
    8.9282    0.0950    0.0000 C   0  0  0  0  0  0  0  0  0  0  0  0
    4.5981   -0.4050    0.0000 C   0  0  0  0  0  0  0  0  0  0  0  0
    3.7320    0.0950    0.0000 C   0  0  0  0  0  0  0  0  0  0  0  0
    9.7942   -0.4050    0.0000 C   0  0  0  0  0  0  0  0  0  0  0  0
    2.8660   -0.4050    0.0000 C   0  0  0  0  0  0  0  0  0  0  0  0
   10.6603    0.0950    0.0000 C   0  0  0  0  0  0  0  0  0  0  0  0
    2.0000    0.0950    0.0000 C   0  0  0  0  0  0  0  0  0  0  0  0
   11.5263   -0.4050    0.0000 C   0  0  0  0  0  0  0  0  0  0  0  0
   13.2583   -0.4050    0.0000 C   0  0  0  0  0  0  0  0  0  0  0  0
   14.1244    0.0950    0.0000 C   0  0  3  0  0  0  0  0  0  0  0  0
   14.9904   -0.4050    0.0000 C   0  0  0  0  0  0  0  0  0  0  0  0
    7.5947    0.5699    0.0000 H   0  0  0  0  0  0  0  0  0  0  0  0
    6.7976    0.5699    0.0000 H   0  0  0  0  0  0  0  0  0  0  0  0
    5.9316   -0.8799    0.0000 H   0  0  0  0  0  0  0  0  0  0  0  0
    6.7287   -0.8799    0.0000 H   0  0  0  0  0  0  0  0  0  0  0  0
    7.6636   -0.8799    0.0000 H   0  0  0  0  0  0  0  0  0  0  0  0
    8.4607   -0.8799    0.0000 H   0  0  0  0  0  0  0  0  0  0  0  0
    5.8626    0.5699    0.0000 H   0  0  0  0  0  0  0  0  0  0  0  0
    5.0656    0.5699    0.0000 H   0  0  0  0  0  0  0  0  0  0  0  0
    9.3267    0.5699    0.0000 H   0  0  0  0  0  0  0  0  0  0  0  0
    8.5297    0.5699    0.0000 H   0  0  0  0  0  0  0  0  0  0  0  0
    4.1996   -0.8799    0.0000 H   0  0  0  0  0  0  0  0  0  0  0  0
    4.9966   -0.8799    0.0000 H   0  0  0  0  0  0  0  0  0  0  0  0
    9.3957   -0.8799    0.0000 H   0  0  0  0  0  0  0  0  0  0  0  0
   10.1928   -0.8799    0.0000 H   0  0  0  0  0  0  0  0  0  0  0  0
    4.1306    0.5699    0.0000 H   0  0  0  0  0  0  0  0  0  0  0  0
    3.3335    0.5699    0.0000 H   0  0  0  0  0  0  0  0  0  0  0  0
    2.4675   -0.8799    0.0000 H   0  0  0  0  0  0  0  0  0  0  0  0
    3.2646   -0.8799    0.0000 H   0  0  0  0  0  0  0  0  0  0  0  0
   11.0588    0.5699    0.0000 H   0  0  0  0  0  0  0  0  0  0  0  0
   10.2617    0.5699    0.0000 H   0  0  0  0  0  0  0  0  0  0  0  0
    2.3100    0.6319    0.0000 H   0  0  0  0  0  0  0  0  0  0  0  0
    1.4631    0.4050    0.0000 H   0  0  0  0  0  0  0  0  0  0  0  0
    1.6900   -0.4419    0.0000 H   0  0  0  0  0  0  0  0  0  0  0  0
   12.8598   -0.8799    0.0000 H   0  0  0  0  0  0  0  0  0  0  0  0
   13.6569   -0.8799    0.0000 H   0  0  0  0  0  0  0  0  0  0  0  0
   13.5874    0.4050    0.0000 H   0  0  0  0  0  0  0  0  0  0  0  0
   14.5919   -0.8799    0.0000 H   0  0  0  0  0  0  0  0  0  0  0  0
   15.3889   -0.8799    0.0000 H   0  0  0  0  0  0  0  0  0  0  0  0
   14.6613    1.4050    0.0000 H   0  0  0  0  0  0  0  0  0  0  0  0
   16.3933   -0.2150    0.0000 H   0  0  0  0  0  0  0  0  0  0  0  0
  1 16  1  0  0  0  0
  1 17  1  0  0  0  0
  2 16  2  0  0  0  0
  3 18  1  0  0  0  0
  3 48  1  0  0  0  0
  4 19  1  0  0  0  0
  4 49  1  0  0  0  0
  5  6  1  0  0  0  0
  5  7  1  0  0  0  0
  5 20  1  0  0  0  0
  5 21  1  0  0  0  0
  6  8  1  0  0  0  0
  6 22  1  0  0  0  0
  6 23  1  0  0  0  0
  7  9  1  0  0  0  0
  7 24  1  0  0  0  0
  7 25  1  0  0  0  0
  8 10  1  0  0  0  0
  8 26  1  0  0  0  0
  8 27  1  0  0  0  0
  9 12  1  0  0  0  0
  9 28  1  0  0  0  0
  9 29  1  0  0  0  0
 10 11  1  0  0  0  0
 10 30  1  0  0  0  0
 10 31  1  0  0  0  0
 11 13  1  0  0  0  0
 11 34  1  0  0  0  0
 11 35  1  0  0  0  0
 12 14  1  0  0  0  0
 12 32  1  0  0  0  0
 12 33  1  0  0  0  0
 13 15  1  0  0  0  0
 13 36  1  0  0  0  0
 13 37  1  0  0  0  0
 14 16  1  0  0  0  0
 14 38  1  0  0  0  0
 14 39  1  0  0  0  0
 15 40  1  0  0  0  0
 15 41  1  0  0  0  0
 15 42  1  0  0  0  0
 17 18  1  0  0  0  0
 17 43  1  0  0  0  0
 17 44  1  0  0  0  0
 18 19  1  0  0  0  0
 18 45  1  0  0  0  0
 19 46  1  0  0  0  0
 19 47  1  0  0  0  0
M  END
> <PUBCHEM_COMPOUND_CID>
14871

> <PUBCHEM_COMPOUND_CANONICALIZED>
1

> <PUBCHEM_CACTVS_COMPLEXITY>
206

> <PUBCHEM_CACTVS_HBOND_ACCEPTOR>
4

> <PUBCHEM_CACTVS_HBOND_DONOR>
2

> <PUBCHEM_CACTVS_ROTATABLE_BOND>
14

> <PUBCHEM_CACTVS_SUBSKEYS>
AAADceBwOAAAAAAAAAAAAAAAAAAAAAAAAAAAAAAAAAAAAAAAAAAAGgAACAAACBSggAICCAAABgAIAACQCAAAAAAAAAAAAAEAAAABEBIAAAACQAAFAAADAAGIyKCAAAAAAAAAAAAAAAAAAAAAAAAAAAAAAA==

> <PUBCHEM_IUPAC_OPENEYE_NAME>
2,3-dihydroxypropyl dodecanoate

> <PUBCHEM_IUPAC_CAS_NAME>
dodecanoic acid 2,3-dihydroxypropyl ester

> <PUBCHEM_IUPAC_NAME_MARKUP>
2,3-dihydroxypropyl dodecanoate

> <PUBCHEM_IUPAC_NAME>
2,3-dihydroxypropyl dodecanoate

> <PUBCHEM_IUPAC_SYSTEMATIC_NAME>
2,3-bis(oxidanyl)propyl dodecanoate

> <PUBCHEM_IUPAC_TRADITIONAL_NAME>
lauric acid glyceryl ester

> <PUBCHEM_IUPAC_INCHI>
InChI=1S/C15H30O4/c1-2-3-4-5-6-7-8-9-10-11-15(18)19-13-14(17)12-16/h14,16-17H,2-13H2,1H3

> <PUBCHEM_IUPAC_INCHIKEY>
ARIWANIATODDMH-UHFFFAOYSA-N

> <PUBCHEM_XLOGP3>
4.2

> <PUBCHEM_EXACT_MASS>
274.21440943

> <PUBCHEM_MOLECULAR_FORMULA>
C15H30O4

> <PUBCHEM_MOLECULAR_WEIGHT>
274.40

> <PUBCHEM_SMILES>
CCCCCCCCCCCC(=O)OCC(CO)O

> <PUBCHEM_CONNECTIVITY_SMILES>
CCCCCCCCCCCC(=O)OCC(CO)O

> <PUBCHEM_CACTVS_TPSA>
66.8

> <PUBCHEM_MONOISOTOPIC_WEIGHT>
274.21440943

> <PUBCHEM_TOTAL_CHARGE>
0

> <PUBCHEM_HEAVY_ATOM_COUNT>
19

> <PUBCHEM_ATOM_DEF_STEREO_COUNT>
0

> <PUBCHEM_ATOM_UDEF_STEREO_COUNT>
1

> <PUBCHEM_BOND_DEF_STEREO_COUNT>
0

> <PUBCHEM_BOND_UDEF_STEREO_COUNT>
0

> <PUBCHEM_ISOTOPIC_ATOM_COUNT>
0

> <PUBCHEM_COMPONENT_COUNT>
1

> <PUBCHEM_CACTVS_TAUTO_COUNT>
-1

> <PUBCHEM_COORDINATE_TYPE>
1
5
255

> <PUBCHEM_BONDANNOTATIONS>
18  3  3

$$$$
