14922999
  -OEChem-05122608592D

 26 25  0     0  0  0  0  0  0999 V2000
    4.9641    0.6160    0.0000 F   0  0  0  0  0  0  0  0  0  0  0  0
    5.9641   -1.1160    0.0000 F   0  0  0  0  0  0  0  0  0  0  0  0
    6.8301   -0.6160    0.0000 F   0  0  0  0  0  0  0  0  0  0  0  0
    5.8301    1.1160    0.0000 F   0  0  0  0  0  0  0  0  0  0  0  0
    4.0981    0.1160    0.0000 F   0  0  0  0  0  0  0  0  0  0  0  0
    5.0981   -1.6160    0.0000 F   0  0  0  0  0  0  0  0  0  0  0  0
    7.6962   -0.1160    0.0000 F   0  0  0  0  0  0  0  0  0  0  0  0
    6.6962    1.6160    0.0000 F   0  0  0  0  0  0  0  0  0  0  0  0
    3.2321   -0.3840    0.0000 F   0  0  0  0  0  0  0  0  0  0  0  0
    4.2321   -2.1160    0.0000 F   0  0  0  0  0  0  0  0  0  0  0  0
    8.5622    0.3840    0.0000 F   0  0  0  0  0  0  0  0  0  0  0  0
    7.5622    2.1160    0.0000 F   0  0  0  0  0  0  0  0  0  0  0  0
    2.0000   -1.2500    0.0000 F   0  0  0  0  0  0  0  0  0  0  0  0
    2.8660   -2.7500    0.0000 F   0  0  0  0  0  0  0  0  0  0  0  0
    9.7942    1.2500    0.0000 O   0  0  0  0  0  0  0  0  0  0  0  0
    8.9282    2.7500    0.0000 O   0  0  0  0  0  0  0  0  0  0  0  0
    5.4641   -0.2500    0.0000 C   0  0  0  0  0  0  0  0  0  0  0  0
    6.3301    0.2500    0.0000 C   0  0  0  0  0  0  0  0  0  0  0  0
    4.5981   -0.7500    0.0000 C   0  0  0  0  0  0  0  0  0  0  0  0
    7.1962    0.7500    0.0000 C   0  0  0  0  0  0  0  0  0  0  0  0
    3.7321   -1.2500    0.0000 C   0  0  0  0  0  0  0  0  0  0  0  0
    8.0622    1.2500    0.0000 C   0  0  0  0  0  0  0  0  0  0  0  0
    2.8660   -1.7500    0.0000 C   0  0  0  0  0  0  0  0  0  0  0  0
    8.9282    1.7500    0.0000 C   0  0  0  0  0  0  0  0  0  0  0  0
    2.8660   -1.1300    0.0000 H   0  0  0  0  0  0  0  0  0  0  0  0
   10.3312    1.5600    0.0000 H   0  0  0  0  0  0  0  0  0  0  0  0
  1 17  1  0  0  0  0
  2 17  1  0  0  0  0
  3 18  1  0  0  0  0
  4 18  1  0  0  0  0
  5 19  1  0  0  0  0
  6 19  1  0  0  0  0
  7 20  1  0  0  0  0
  8 20  1  0  0  0  0
  9 21  1  0  0  0  0
 10 21  1  0  0  0  0
 11 22  1  0  0  0  0
 12 22  1  0  0  0  0
 13 23  1  0  0  0  0
 14 23  1  0  0  0  0
 15 24  1  0  0  0  0
 15 26  1  0  0  0  0
 16 24  2  0  0  0  0
 17 18  1  0  0  0  0
 17 19  1  0  0  0  0
 18 20  1  0  0  0  0
 19 21  1  0  0  0  0
 20 22  1  0  0  0  0
 21 23  1  0  0  0  0
 22 24  1  0  0  0  0
 23 25  1  0  0  0  0
M  END
> <PUBCHEM_COMPOUND_CID>
14922999

> <PUBCHEM_COMPOUND_CANONICALIZED>
1

> <PUBCHEM_CACTVS_COMPLEXITY>
495

> <PUBCHEM_CACTVS_HBOND_ACCEPTOR>
16

> <PUBCHEM_CACTVS_HBOND_DONOR>
1

> <PUBCHEM_CACTVS_ROTATABLE_BOND>
7

> <PUBCHEM_CACTVS_SUBSKEYS>
AAADcQBwMcAAAAAAAAAAAAAAAAAAAAAAAAAAAAAAAAAAAAAAAAAAGwAACAAACACAgBAACAAAAgAIAACQCAAAAAAAAAAAAAEAAAAAABIAAAAAQAAEAAAAAAGIyKCAAAAAAAAAAAAAAAAAAAAAAAAAAAAAAA==

> <PUBCHEM_IUPAC_OPENEYE_NAME>
2,2,3,3,4,4,5,5,6,6,7,7,8,8-tetradecafluorooctanoic acid

> <PUBCHEM_IUPAC_CAS_NAME>
2,2,3,3,4,4,5,5,6,6,7,7,8,8-tetradecafluorooctanoic acid

> <PUBCHEM_IUPAC_NAME_MARKUP>
2,2,3,3,4,4,5,5,6,6,7,7,8,8-tetradecafluorooctanoic acid

> <PUBCHEM_IUPAC_NAME>
2,2,3,3,4,4,5,5,6,6,7,7,8,8-tetradecafluorooctanoic acid

> <PUBCHEM_IUPAC_SYSTEMATIC_NAME>
2,2,3,3,4,4,5,5,6,6,7,7,8,8-tetradecakis(fluoranyl)octanoic acid

> <PUBCHEM_IUPAC_TRADITIONAL_NAME>
2,2,3,3,4,4,5,5,6,6,7,7,8,8-tetradecafluorocaprylic acid

> <PUBCHEM_IUPAC_INCHI>
InChI=1S/C8H2F14O2/c9-1(10)3(11,12)5(15,16)7(19,20)8(21,22)6(17,18)4(13,14)2(23)24/h1H,(H,23,24)

> <PUBCHEM_IUPAC_INCHIKEY>
AEBAYKKLSQLBDU-UHFFFAOYSA-N

> <PUBCHEM_XLOGP3_AA>
4.7

> <PUBCHEM_EXACT_MASS>
395.9831236

> <PUBCHEM_MOLECULAR_FORMULA>
C8H2F14O2

> <PUBCHEM_MOLECULAR_WEIGHT>
396.08

> <PUBCHEM_SMILES>
C(C(C(C(C(C(C(C(=O)O)(F)F)(F)F)(F)F)(F)F)(F)F)(F)F)(F)F

> <PUBCHEM_CONNECTIVITY_SMILES>
C(C(C(C(C(C(C(C(=O)O)(F)F)(F)F)(F)F)(F)F)(F)F)(F)F)(F)F

> <PUBCHEM_CACTVS_TPSA>
37.3

> <PUBCHEM_MONOISOTOPIC_WEIGHT>
395.9831236

> <PUBCHEM_TOTAL_CHARGE>
0

> <PUBCHEM_HEAVY_ATOM_COUNT>
24

> <PUBCHEM_ATOM_DEF_STEREO_COUNT>
0

> <PUBCHEM_ATOM_UDEF_STEREO_COUNT>
0

> <PUBCHEM_BOND_DEF_STEREO_COUNT>
0

> <PUBCHEM_BOND_UDEF_STEREO_COUNT>
0

> <PUBCHEM_ISOTOPIC_ATOM_COUNT>
0

> <PUBCHEM_COMPONENT_COUNT>
1

> <PUBCHEM_CACTVS_TAUTO_COUNT>
-1

> <PUBCHEM_COORDINATE_TYPE>
1
5
255

$$$$
