15066111
  -OEChem-05122608462D

 22 23  0     0  0  0  0  0  0999 V2000
    2.6694    1.3258    0.0000 O   0  0  0  0  0  0  0  0  0  0  0  0
    2.6694   -1.3258    0.0000 O   0  0  0  0  0  0  0  0  0  0  0  0
    3.8635    2.5001    0.0000 O   0  0  0  0  0  0  0  0  0  0  0  0
    3.8635   -2.5001    0.0000 O   0  0  0  0  0  0  0  0  0  0  0  0
    4.6082    1.0000    0.0000 C   0  0  0  0  0  0  0  0  0  0  0  0
    4.6082   -1.0000    0.0000 C   0  0  0  0  0  0  0  0  0  0  0  0
    2.0000    0.5227    0.0000 C   0  0  0  0  0  0  0  0  0  0  0  0
    2.0000   -0.5227    0.0000 C   0  0  0  0  0  0  0  0  0  0  0  0
    5.4743    0.5000    0.0000 C   0  0  0  0  0  0  0  0  0  0  0  0
    5.4743   -0.5000    0.0000 C   0  0  0  0  0  0  0  0  0  0  0  0
    3.7422    0.5000    0.0000 C   0  0  0  0  0  0  0  0  0  0  0  0
    3.7422   -0.5000    0.0000 C   0  0  0  0  0  0  0  0  0  0  0  0
    3.6978    1.5140    0.0000 C   0  0  0  0  0  0  0  0  0  0  0  0
    3.6978   -1.5140    0.0000 C   0  0  0  0  0  0  0  0  0  0  0  0
    1.6582    1.0400    0.0000 H   0  0  0  0  0  0  0  0  0  0  0  0
    1.4062    0.3443    0.0000 H   0  0  0  0  0  0  0  0  0  0  0  0
    1.4062   -0.3443    0.0000 H   0  0  0  0  0  0  0  0  0  0  0  0
    1.6582   -1.0400    0.0000 H   0  0  0  0  0  0  0  0  0  0  0  0
    6.0112    0.8100    0.0000 H   0  0  0  0  0  0  0  0  0  0  0  0
    6.0112   -0.8100    0.0000 H   0  0  0  0  0  0  0  0  0  0  0  0
    3.2053    0.8100    0.0000 H   0  0  0  0  0  0  0  0  0  0  0  0
    3.2053   -0.8100    0.0000 H   0  0  0  0  0  0  0  0  0  0  0  0
  1  7  1  0  0  0  0
  1 13  1  0  0  0  0
  2  8  1  0  0  0  0
  2 14  1  0  0  0  0
  3 13  2  0  0  0  0
  4 14  2  0  0  0  0
  5  9  2  0  0  0  0
  5 11  1  0  0  0  0
  5 13  1  0  0  0  0
  6 10  2  0  0  0  0
  6 12  1  0  0  0  0
  6 14  1  0  0  0  0
  7  8  1  0  0  0  0
  7 15  1  0  0  0  0
  7 16  1  0  0  0  0
  8 17  1  0  0  0  0
  8 18  1  0  0  0  0
  9 10  1  0  0  0  0
  9 19  1  0  0  0  0
 10 20  1  0  0  0  0
 11 12  2  0  0  0  0
 11 21  1  0  0  0  0
 12 22  1  0  0  0  0
M  END
> <PUBCHEM_COMPOUND_CID>
15066111

> <PUBCHEM_COMPOUND_CANONICALIZED>
1

> <PUBCHEM_CACTVS_COMPLEXITY>
215

> <PUBCHEM_CACTVS_HBOND_ACCEPTOR>
4

> <PUBCHEM_CACTVS_HBOND_DONOR>
0

> <PUBCHEM_CACTVS_ROTATABLE_BOND>
0

> <PUBCHEM_CACTVS_SUBSKEYS>
AAADccBwOAAAAAAAAAAAAAAAAAAAAAAAAAAwAAAAAAAAAACRAAAAGgAAAAAADACgmAIwCIAABACIAiDSCAACAAAkAAAIiAEACMgJJjKANRiCMQAkwAEKqYeIyDCOQAAAAAAAAACAAAAAAAAAAAAAAAAAAA==

> <PUBCHEM_IUPAC_OPENEYE_NAME>
3,6-dioxabicyclo[6.2.2]dodeca-1(10),8,11-triene-2,7-dione

> <PUBCHEM_IUPAC_CAS_NAME>
3,6-dioxabicyclo[6.2.2]dodeca-1(10),8,11-triene-2,7-dione

> <PUBCHEM_IUPAC_NAME_MARKUP>
3,6-dioxabicyclo[6.2.2]dodeca-1(10),8,11-triene-2,7-dione

> <PUBCHEM_IUPAC_NAME>
3,6-dioxabicyclo[6.2.2]dodeca-1(10),8,11-triene-2,7-dione

> <PUBCHEM_IUPAC_SYSTEMATIC_NAME>
3,6-dioxabicyclo[6.2.2]dodeca-1(10),8,11-triene-2,7-dione

> <PUBCHEM_IUPAC_TRADITIONAL_NAME>
3,6-dioxabicyclo[6.2.2]dodeca-1(10),8,11-triene-2,7-quinone

> <PUBCHEM_IUPAC_INCHI>
InChI=1S/C10H8O4/c11-9-7-1-2-8(4-3-7)10(12)14-6-5-13-9/h1-4H,5-6H2

> <PUBCHEM_IUPAC_INCHIKEY>
MMINFSMURORWKH-UHFFFAOYSA-N

> <PUBCHEM_XLOGP3_AA>
1.4

> <PUBCHEM_EXACT_MASS>
192.04225873

> <PUBCHEM_MOLECULAR_FORMULA>
C10H8O4

> <PUBCHEM_MOLECULAR_WEIGHT>
192.17

> <PUBCHEM_SMILES>
C1COC(=O)C2=CC=C(C=C2)C(=O)O1

> <PUBCHEM_CONNECTIVITY_SMILES>
C1COC(=O)C2=CC=C(C=C2)C(=O)O1

> <PUBCHEM_CACTVS_TPSA>
52.6

> <PUBCHEM_MONOISOTOPIC_WEIGHT>
192.04225873

> <PUBCHEM_TOTAL_CHARGE>
0

> <PUBCHEM_HEAVY_ATOM_COUNT>
14

> <PUBCHEM_ATOM_DEF_STEREO_COUNT>
0

> <PUBCHEM_ATOM_UDEF_STEREO_COUNT>
0

> <PUBCHEM_BOND_DEF_STEREO_COUNT>
0

> <PUBCHEM_BOND_UDEF_STEREO_COUNT>
0

> <PUBCHEM_ISOTOPIC_ATOM_COUNT>
0

> <PUBCHEM_COMPONENT_COUNT>
1

> <PUBCHEM_CACTVS_TAUTO_COUNT>
-1

> <PUBCHEM_COORDINATE_TYPE>
1
5
255

> <PUBCHEM_BONDANNOTATIONS>
11  12  8
5  11  8
5  9  8
6  10  8
6  12  8
9  10  8

$$$$
