150694
  -OEChem-05122608542D

 52 54  0     1  0  0  0  0  0999 V2000
    3.0000   -6.8380    0.0000 O   0  0  0  0  0  0  0  0  0  0  0  0
    3.3660   -4.4720    0.0000 O   0  0  0  0  0  0  0  0  0  0  0  0
    3.3660    3.5280    0.0000 O   0  0  0  0  0  0  0  0  0  0  0  0
    3.3660    5.5280    0.0000 O   0  0  0  0  0  0  0  0  0  0  0  0
    5.0981    6.5280    0.0000 O   0  0  0  0  0  0  0  0  0  0  0  0
    3.3660   -0.4720    0.0000 C   0  0  0  0  0  0  0  0  0  0  0  0
    2.5000   -5.9720    0.0000 C   0  0  3  0  0  0  0  0  0  0  0  0
    3.3660   -1.4720    0.0000 C   0  0  0  0  0  0  0  0  0  0  0  0
    2.0000   -6.8380    0.0000 C   0  0  0  0  0  0  0  0  0  0  0  0
    3.3660    0.5280    0.0000 C   0  0  0  0  0  0  0  0  0  0  0  0
    2.5000   -4.9720    0.0000 C   0  0  0  0  0  0  0  0  0  0  0  0
    4.3660   -0.4720    0.0000 C   0  0  0  0  0  0  0  0  0  0  0  0
    2.3660   -0.4720    0.0000 C   0  0  0  0  0  0  0  0  0  0  0  0
    4.2321   -1.9720    0.0000 C   0  0  0  0  0  0  0  0  0  0  0  0
    2.5000   -1.9720    0.0000 C   0  0  0  0  0  0  0  0  0  0  0  0
    3.3660   -3.4720    0.0000 C   0  0  0  0  0  0  0  0  0  0  0  0
    2.5000    1.0280    0.0000 C   0  0  0  0  0  0  0  0  0  0  0  0
    4.2321    1.0280    0.0000 C   0  0  0  0  0  0  0  0  0  0  0  0
    4.2321   -2.9720    0.0000 C   0  0  0  0  0  0  0  0  0  0  0  0
    2.5000   -2.9720    0.0000 C   0  0  0  0  0  0  0  0  0  0  0  0
    2.5000    2.0280    0.0000 C   0  0  0  0  0  0  0  0  0  0  0  0
    4.2321    2.0280    0.0000 C   0  0  0  0  0  0  0  0  0  0  0  0
    3.3660    2.5280    0.0000 C   0  0  0  0  0  0  0  0  0  0  0  0
    4.2321    4.0280    0.0000 C   0  0  0  0  0  0  0  0  0  0  0  0
    4.2321    5.0280    0.0000 C   0  0  3  0  0  0  0  0  0  0  0  0
    5.0981    5.5280    0.0000 C   0  0  0  0  0  0  0  0  0  0  0  0
    3.0989   -5.8115    0.0000 H   0  0  0  0  0  0  0  0  0  0  0  0
    1.4174   -6.6260    0.0000 H   0  0  0  0  0  0  0  0  0  0  0  0
    1.8923   -7.4486    0.0000 H   0  0  0  0  0  0  0  0  0  0  0  0
    2.2880   -4.3894    0.0000 H   0  0  0  0  0  0  0  0  0  0  0  0
    1.8894   -5.0797    0.0000 H   0  0  0  0  0  0  0  0  0  0  0  0
    4.3660   -1.0920    0.0000 H   0  0  0  0  0  0  0  0  0  0  0  0
    4.9860   -0.4720    0.0000 H   0  0  0  0  0  0  0  0  0  0  0  0
    4.3660    0.1480    0.0000 H   0  0  0  0  0  0  0  0  0  0  0  0
    2.3660    0.1480    0.0000 H   0  0  0  0  0  0  0  0  0  0  0  0
    1.7460   -0.4720    0.0000 H   0  0  0  0  0  0  0  0  0  0  0  0
    2.3660   -1.0920    0.0000 H   0  0  0  0  0  0  0  0  0  0  0  0
    4.7690   -1.6620    0.0000 H   0  0  0  0  0  0  0  0  0  0  0  0
    1.9631   -1.6620    0.0000 H   0  0  0  0  0  0  0  0  0  0  0  0
    1.9631    0.7180    0.0000 H   0  0  0  0  0  0  0  0  0  0  0  0
    4.7690    0.7180    0.0000 H   0  0  0  0  0  0  0  0  0  0  0  0
    4.7690   -3.2820    0.0000 H   0  0  0  0  0  0  0  0  0  0  0  0
    1.9631   -3.2820    0.0000 H   0  0  0  0  0  0  0  0  0  0  0  0
    1.9631    2.3380    0.0000 H   0  0  0  0  0  0  0  0  0  0  0  0
    4.7690    2.3380    0.0000 H   0  0  0  0  0  0  0  0  0  0  0  0
    4.4441    3.4454    0.0000 H   0  0  0  0  0  0  0  0  0  0  0  0
    4.8426    4.1357    0.0000 H   0  0  0  0  0  0  0  0  0  0  0  0
    4.2321    5.6480    0.0000 H   0  0  0  0  0  0  0  0  0  0  0  0
    5.3101    4.9454    0.0000 H   0  0  0  0  0  0  0  0  0  0  0  0
    5.7087    5.6357    0.0000 H   0  0  0  0  0  0  0  0  0  0  0  0
    3.3660    6.1480    0.0000 H   0  0  0  0  0  0  0  0  0  0  0  0
    5.6350    6.8380    0.0000 H   0  0  0  0  0  0  0  0  0  0  0  0
  1  7  1  0  0  0  0
  1  9  1  0  0  0  0
  2 11  1  0  0  0  0
  2 16  1  0  0  0  0
  3 23  1  0  0  0  0
  3 24  1  0  0  0  0
  4 25  1  0  0  0  0
  4 51  1  0  0  0  0
  5 26  1  0  0  0  0
  5 52  1  0  0  0  0
  6  8  1  0  0  0  0
  6 10  1  0  0  0  0
  6 12  1  0  0  0  0
  6 13  1  0  0  0  0
  7  9  1  0  0  0  0
  7 11  1  0  0  0  0
  7 27  1  0  0  0  0
  8 14  2  0  0  0  0
  8 15  1  0  0  0  0
  9 28  1  0  0  0  0
  9 29  1  0  0  0  0
 10 17  2  0  0  0  0
 10 18  1  0  0  0  0
 11 30  1  0  0  0  0
 11 31  1  0  0  0  0
 12 32  1  0  0  0  0
 12 33  1  0  0  0  0
 12 34  1  0  0  0  0
 13 35  1  0  0  0  0
 13 36  1  0  0  0  0
 13 37  1  0  0  0  0
 14 19  1  0  0  0  0
 14 38  1  0  0  0  0
 15 20  2  0  0  0  0
 15 39  1  0  0  0  0
 16 19  2  0  0  0  0
 16 20  1  0  0  0  0
 17 21  1  0  0  0  0
 17 40  1  0  0  0  0
 18 22  2  0  0  0  0
 18 41  1  0  0  0  0
 19 42  1  0  0  0  0
 20 43  1  0  0  0  0
 21 23  2  0  0  0  0
 21 44  1  0  0  0  0
 22 23  1  0  0  0  0
 22 45  1  0  0  0  0
 24 25  1  0  0  0  0
 24 46  1  0  0  0  0
 24 47  1  0  0  0  0
 25 26  1  0  0  0  0
 25 48  1  0  0  0  0
 26 49  1  0  0  0  0
 26 50  1  0  0  0  0
M  END
> <PUBCHEM_COMPOUND_CID>
150694

> <PUBCHEM_COMPOUND_CANONICALIZED>
1

> <PUBCHEM_CACTVS_COMPLEXITY>
411

> <PUBCHEM_CACTVS_HBOND_ACCEPTOR>
5

> <PUBCHEM_CACTVS_HBOND_DONOR>
2

> <PUBCHEM_CACTVS_ROTATABLE_BOND>
9

> <PUBCHEM_CACTVS_SUBSKEYS>
AAADceB4OAAAAAAAAAAAAAAAEgAAAAAAAAAwYAAAAAAAAAABQAAAGgAACAAADhSgmAIyBoAABgCAAiBCAAACCAAgIAAIiAAGCIgNNiKEMRqCeCClwBELqAeAwPAPoAAAAAAAAABAAAAAAAAAAAAAAAAAAA==

> <PUBCHEM_IUPAC_OPENEYE_NAME>
3-[4-[1-methyl-1-[4-(oxiran-2-ylmethoxy)phenyl]ethyl]phenoxy]propane-1,2-diol

> <PUBCHEM_IUPAC_CAS_NAME>
3-[4-[2-[4-(2-oxiranylmethoxy)phenyl]propan-2-yl]phenoxy]propane-1,2-diol

> <PUBCHEM_IUPAC_NAME_MARKUP>
3-[4-[2-[4-(oxiran-2-ylmethoxy)phenyl]propan-2-yl]phenoxy]propane-1,2-diol

> <PUBCHEM_IUPAC_NAME>
3-[4-[2-[4-(oxiran-2-ylmethoxy)phenyl]propan-2-yl]phenoxy]propane-1,2-diol

> <PUBCHEM_IUPAC_SYSTEMATIC_NAME>
3-[4-[2-[4-(oxiran-2-ylmethoxy)phenyl]propan-2-yl]phenoxy]propane-1,2-diol

> <PUBCHEM_IUPAC_TRADITIONAL_NAME>
3-[4-[1-(4-glycidoxyphenyl)-1-methyl-ethyl]phenoxy]propane-1,2-diol

> <PUBCHEM_IUPAC_INCHI>
InChI=1S/C21H26O5/c1-21(2,15-3-7-18(8-4-15)24-12-17(23)11-22)16-5-9-19(10-6-16)25-13-20-14-26-20/h3-10,17,20,22-23H,11-14H2,1-2H3

> <PUBCHEM_IUPAC_INCHIKEY>
NBLIPZBCGXIEFO-UHFFFAOYSA-N

> <PUBCHEM_XLOGP3_AA>
3.1

> <PUBCHEM_EXACT_MASS>
358.17802393

> <PUBCHEM_MOLECULAR_FORMULA>
C21H26O5

> <PUBCHEM_MOLECULAR_WEIGHT>
358.4

> <PUBCHEM_SMILES>
CC(C)(C1=CC=C(C=C1)OCC2CO2)C3=CC=C(C=C3)OCC(CO)O

> <PUBCHEM_CONNECTIVITY_SMILES>
CC(C)(C1=CC=C(C=C1)OCC2CO2)C3=CC=C(C=C3)OCC(CO)O

> <PUBCHEM_CACTVS_TPSA>
71.5

> <PUBCHEM_MONOISOTOPIC_WEIGHT>
358.17802393

> <PUBCHEM_TOTAL_CHARGE>
0

> <PUBCHEM_HEAVY_ATOM_COUNT>
26

> <PUBCHEM_ATOM_DEF_STEREO_COUNT>
0

> <PUBCHEM_ATOM_UDEF_STEREO_COUNT>
2

> <PUBCHEM_BOND_DEF_STEREO_COUNT>
0

> <PUBCHEM_BOND_UDEF_STEREO_COUNT>
0

> <PUBCHEM_ISOTOPIC_ATOM_COUNT>
0

> <PUBCHEM_COMPONENT_COUNT>
1

> <PUBCHEM_CACTVS_TAUTO_COUNT>
-1

> <PUBCHEM_COORDINATE_TYPE>
1
5
255

> <PUBCHEM_BONDANNOTATIONS>
10  17  8
10  18  8
14  19  8
15  20  8
16  19  8
16  20  8
17  21  8
18  22  8
21  23  8
22  23  8
25  4  3
7  11  3
8  14  8
8  15  8

$$$$
