15089
  -OEChem-05122609492D

 48 48  0     0  0  0  0  0  0999 V2000
    6.3301   -1.5670    0.0000 C   0  0  0  0  0  0  0  0  0  0  0  0
    2.8660   -1.5670    0.0000 C   0  0  0  0  0  0  0  0  0  0  0  0
    4.5981    1.4330    0.0000 C   0  0  0  0  0  0  0  0  0  0  0  0
    5.4641   -1.0670    0.0000 C   0  0  0  0  0  0  0  0  0  0  0  0
    3.7321   -1.0670    0.0000 C   0  0  0  0  0  0  0  0  0  0  0  0
    4.5981    0.4330    0.0000 C   0  0  0  0  0  0  0  0  0  0  0  0
    4.5981   -1.5670    0.0000 C   0  0  0  0  0  0  0  0  0  0  0  0
    5.4641   -0.0670    0.0000 C   0  0  0  0  0  0  0  0  0  0  0  0
    3.7321   -0.0670    0.0000 C   0  0  0  0  0  0  0  0  0  0  0  0
    7.1962   -2.0670    0.0000 C   0  0  0  0  0  0  0  0  0  0  0  0
    5.8301   -2.4330    0.0000 C   0  0  0  0  0  0  0  0  0  0  0  0
    6.8301   -0.7010    0.0000 C   0  0  0  0  0  0  0  0  0  0  0  0
    2.0000   -2.0670    0.0000 C   0  0  0  0  0  0  0  0  0  0  0  0
    2.3660   -0.7010    0.0000 C   0  0  0  0  0  0  0  0  0  0  0  0
    3.3660   -2.4330    0.0000 C   0  0  0  0  0  0  0  0  0  0  0  0
    4.5981    2.4330    0.0000 C   0  0  0  0  0  0  0  0  0  0  0  0
    5.5981    1.4330    0.0000 C   0  0  0  0  0  0  0  0  0  0  0  0
    3.5981    1.4330    0.0000 C   0  0  0  0  0  0  0  0  0  0  0  0
    4.5981   -2.1870    0.0000 H   0  0  0  0  0  0  0  0  0  0  0  0
    6.0010    0.2430    0.0000 H   0  0  0  0  0  0  0  0  0  0  0  0
    3.1951    0.2430    0.0000 H   0  0  0  0  0  0  0  0  0  0  0  0
    6.8862   -2.6039    0.0000 H   0  0  0  0  0  0  0  0  0  0  0  0
    7.7331   -2.3770    0.0000 H   0  0  0  0  0  0  0  0  0  0  0  0
    7.5062   -1.5301    0.0000 H   0  0  0  0  0  0  0  0  0  0  0  0
    5.2932   -2.1230    0.0000 H   0  0  0  0  0  0  0  0  0  0  0  0
    5.5201   -2.9700    0.0000 H   0  0  0  0  0  0  0  0  0  0  0  0
    6.3671   -2.7430    0.0000 H   0  0  0  0  0  0  0  0  0  0  0  0
    7.3671   -1.0110    0.0000 H   0  0  0  0  0  0  0  0  0  0  0  0
    7.1401   -0.1640    0.0000 H   0  0  0  0  0  0  0  0  0  0  0  0
    6.2932   -0.3910    0.0000 H   0  0  0  0  0  0  0  0  0  0  0  0
    1.6900   -1.5301    0.0000 H   0  0  0  0  0  0  0  0  0  0  0  0
    1.4631   -2.3770    0.0000 H   0  0  0  0  0  0  0  0  0  0  0  0
    2.3100   -2.6039    0.0000 H   0  0  0  0  0  0  0  0  0  0  0  0
    2.9030   -0.3910    0.0000 H   0  0  0  0  0  0  0  0  0  0  0  0
    2.0560   -0.1640    0.0000 H   0  0  0  0  0  0  0  0  0  0  0  0
    1.8291   -1.0110    0.0000 H   0  0  0  0  0  0  0  0  0  0  0  0
    2.8291   -2.7430    0.0000 H   0  0  0  0  0  0  0  0  0  0  0  0
    3.6760   -2.9700    0.0000 H   0  0  0  0  0  0  0  0  0  0  0  0
    3.9030   -2.1230    0.0000 H   0  0  0  0  0  0  0  0  0  0  0  0
    5.2181    2.4330    0.0000 H   0  0  0  0  0  0  0  0  0  0  0  0
    4.5981    3.0530    0.0000 H   0  0  0  0  0  0  0  0  0  0  0  0
    3.9781    2.4330    0.0000 H   0  0  0  0  0  0  0  0  0  0  0  0
    5.5981    0.8130    0.0000 H   0  0  0  0  0  0  0  0  0  0  0  0
    6.2181    1.4330    0.0000 H   0  0  0  0  0  0  0  0  0  0  0  0
    5.5981    2.0530    0.0000 H   0  0  0  0  0  0  0  0  0  0  0  0
    3.5981    2.0530    0.0000 H   0  0  0  0  0  0  0  0  0  0  0  0
    2.9781    1.4330    0.0000 H   0  0  0  0  0  0  0  0  0  0  0  0
    3.5981    0.8130    0.0000 H   0  0  0  0  0  0  0  0  0  0  0  0
  1  4  1  0  0  0  0
  1 10  1  0  0  0  0
  1 11  1  0  0  0  0
  1 12  1  0  0  0  0
  2  5  1  0  0  0  0
  2 13  1  0  0  0  0
  2 14  1  0  0  0  0
  2 15  1  0  0  0  0
  3  6  1  0  0  0  0
  3 16  1  0  0  0  0
  3 17  1  0  0  0  0
  3 18  1  0  0  0  0
  4  7  2  0  0  0  0
  4  8  1  0  0  0  0
  5  7  1  0  0  0  0
  5  9  2  0  0  0  0
  6  8  2  0  0  0  0
  6  9  1  0  0  0  0
  7 19  1  0  0  0  0
  8 20  1  0  0  0  0
  9 21  1  0  0  0  0
 10 22  1  0  0  0  0
 10 23  1  0  0  0  0
 10 24  1  0  0  0  0
 11 25  1  0  0  0  0
 11 26  1  0  0  0  0
 11 27  1  0  0  0  0
 12 28  1  0  0  0  0
 12 29  1  0  0  0  0
 12 30  1  0  0  0  0
 13 31  1  0  0  0  0
 13 32  1  0  0  0  0
 13 33  1  0  0  0  0
 14 34  1  0  0  0  0
 14 35  1  0  0  0  0
 14 36  1  0  0  0  0
 15 37  1  0  0  0  0
 15 38  1  0  0  0  0
 15 39  1  0  0  0  0
 16 40  1  0  0  0  0
 16 41  1  0  0  0  0
 16 42  1  0  0  0  0
 17 43  1  0  0  0  0
 17 44  1  0  0  0  0
 17 45  1  0  0  0  0
 18 46  1  0  0  0  0
 18 47  1  0  0  0  0
 18 48  1  0  0  0  0
M  END
> <PUBCHEM_COMPOUND_CID>
15089

> <PUBCHEM_COMPOUND_CANONICALIZED>
1

> <PUBCHEM_CACTVS_COMPLEXITY>
206

> <PUBCHEM_CACTVS_HBOND_ACCEPTOR>
0

> <PUBCHEM_CACTVS_HBOND_DONOR>
0

> <PUBCHEM_CACTVS_ROTATABLE_BOND>
3

> <PUBCHEM_CACTVS_SUBSKEYS>
AAADceB4AAAAAAAAAAAAAAAAAAAAAAAAAAAwAAAAAAAAAAABAAAAGAAAAAAADgCAGAAyAIAAAACAAiBCAAACAAAgAAAAiAAAAIgIICKAERCAIAAggAAIiAcAgMAPgAACAAAAAAAAAAQAAAAAAAAAAAAAAA==

> <PUBCHEM_IUPAC_OPENEYE_NAME>
1,3,5-tritert-butylbenzene

> <PUBCHEM_IUPAC_CAS_NAME>
1,3,5-tritert-butylbenzene

> <PUBCHEM_IUPAC_NAME_MARKUP>
1,3,5-tri<I>tert</I>-butylbenzene

> <PUBCHEM_IUPAC_NAME>
1,3,5-tritert-butylbenzene

> <PUBCHEM_IUPAC_SYSTEMATIC_NAME>
1,3,5-tritert-butylbenzene

> <PUBCHEM_IUPAC_TRADITIONAL_NAME>
1,3,5-tritert-butylbenzene

> <PUBCHEM_IUPAC_INCHI>
InChI=1S/C18H30/c1-16(2,3)13-10-14(17(4,5)6)12-15(11-13)18(7,8)9/h10-12H,1-9H3

> <PUBCHEM_IUPAC_INCHIKEY>
GUFMBISUSZUUCB-UHFFFAOYSA-N

> <PUBCHEM_XLOGP3_AA>
6.9

> <PUBCHEM_EXACT_MASS>
246.234750957

> <PUBCHEM_MOLECULAR_FORMULA>
C18H30

> <PUBCHEM_MOLECULAR_WEIGHT>
246.4

> <PUBCHEM_SMILES>
CC(C)(C)C1=CC(=CC(=C1)C(C)(C)C)C(C)(C)C

> <PUBCHEM_CONNECTIVITY_SMILES>
CC(C)(C)C1=CC(=CC(=C1)C(C)(C)C)C(C)(C)C

> <PUBCHEM_CACTVS_TPSA>
0

> <PUBCHEM_MONOISOTOPIC_WEIGHT>
246.234750957

> <PUBCHEM_TOTAL_CHARGE>
0

> <PUBCHEM_HEAVY_ATOM_COUNT>
18

> <PUBCHEM_ATOM_DEF_STEREO_COUNT>
0

> <PUBCHEM_ATOM_UDEF_STEREO_COUNT>
0

> <PUBCHEM_BOND_DEF_STEREO_COUNT>
0

> <PUBCHEM_BOND_UDEF_STEREO_COUNT>
0

> <PUBCHEM_ISOTOPIC_ATOM_COUNT>
0

> <PUBCHEM_COMPONENT_COUNT>
1

> <PUBCHEM_CACTVS_TAUTO_COUNT>
-1

> <PUBCHEM_COORDINATE_TYPE>
1
5
255

> <PUBCHEM_BONDANNOTATIONS>
4  7  8
4  8  8
5  7  8
5  9  8
6  8  8
6  9  8

$$$$
