15098
  -OEChem-08032615092D

 53 52  0     0  0  0  0  0  0999 V2000
    5.4641    0.0000    0.0000 Sn  0  0  0  0  0  0  0  0  0  0  0  0
    6.3301    0.5000    0.0000 C   0  0  0  0  0  0  0  0  0  0  0  0
    4.5981   -0.5000    0.0000 C   0  0  0  0  0  0  0  0  0  0  0  0
    4.9641    0.8660    0.0000 C   0  0  0  0  0  0  0  0  0  0  0  0
    5.9641   -0.8660    0.0000 C   0  0  0  0  0  0  0  0  0  0  0  0
    7.1962    0.0000    0.0000 C   0  0  0  0  0  0  0  0  0  0  0  0
    3.7321   -0.0000    0.0000 C   0  0  0  0  0  0  0  0  0  0  0  0
    5.4641    1.7321    0.0000 C   0  0  0  0  0  0  0  0  0  0  0  0
    5.4641   -1.7321    0.0000 C   0  0  0  0  0  0  0  0  0  0  0  0
    8.0622    0.5000    0.0000 C   0  0  0  0  0  0  0  0  0  0  0  0
    2.8660   -0.5000    0.0000 C   0  0  0  0  0  0  0  0  0  0  0  0
    4.9641    2.5981    0.0000 C   0  0  0  0  0  0  0  0  0  0  0  0
    5.9641   -2.5981    0.0000 C   0  0  0  0  0  0  0  0  0  0  0  0
    8.9282   -0.0000    0.0000 C   0  0  0  0  0  0  0  0  0  0  0  0
    2.0000   -0.0000    0.0000 C   0  0  0  0  0  0  0  0  0  0  0  0
    5.4641    3.4641    0.0000 C   0  0  0  0  0  0  0  0  0  0  0  0
    5.4641   -3.4641    0.0000 C   0  0  0  0  0  0  0  0  0  0  0  0
    6.7287    0.9749    0.0000 H   0  0  0  0  0  0  0  0  0  0  0  0
    5.9316    0.9749    0.0000 H   0  0  0  0  0  0  0  0  0  0  0  0
    4.1996   -0.9749    0.0000 H   0  0  0  0  0  0  0  0  0  0  0  0
    4.9966   -0.9749    0.0000 H   0  0  0  0  0  0  0  0  0  0  0  0
    4.4892    1.2646    0.0000 H   0  0  0  0  0  0  0  0  0  0  0  0
    4.4892    0.4675    0.0000 H   0  0  0  0  0  0  0  0  0  0  0  0
    6.4391   -1.2646    0.0000 H   0  0  0  0  0  0  0  0  0  0  0  0
    6.4391   -0.4675    0.0000 H   0  0  0  0  0  0  0  0  0  0  0  0
    6.7976   -0.4749    0.0000 H   0  0  0  0  0  0  0  0  0  0  0  0
    7.5947   -0.4749    0.0000 H   0  0  0  0  0  0  0  0  0  0  0  0
    4.1306    0.4749    0.0000 H   0  0  0  0  0  0  0  0  0  0  0  0
    3.3335    0.4749    0.0000 H   0  0  0  0  0  0  0  0  0  0  0  0
    5.9391    1.3335    0.0000 H   0  0  0  0  0  0  0  0  0  0  0  0
    5.9391    2.1306    0.0000 H   0  0  0  0  0  0  0  0  0  0  0  0
    4.9892   -1.3335    0.0000 H   0  0  0  0  0  0  0  0  0  0  0  0
    4.9892   -2.1306    0.0000 H   0  0  0  0  0  0  0  0  0  0  0  0
    8.4607    0.9749    0.0000 H   0  0  0  0  0  0  0  0  0  0  0  0
    7.6637    0.9749    0.0000 H   0  0  0  0  0  0  0  0  0  0  0  0
    2.4675   -0.9749    0.0000 H   0  0  0  0  0  0  0  0  0  0  0  0
    3.2646   -0.9749    0.0000 H   0  0  0  0  0  0  0  0  0  0  0  0
    4.4892    2.9966    0.0000 H   0  0  0  0  0  0  0  0  0  0  0  0
    4.4892    2.1996    0.0000 H   0  0  0  0  0  0  0  0  0  0  0  0
    6.4391   -2.9966    0.0000 H   0  0  0  0  0  0  0  0  0  0  0  0
    6.4391   -2.1996    0.0000 H   0  0  0  0  0  0  0  0  0  0  0  0
    8.6182   -0.5369    0.0000 H   0  0  0  0  0  0  0  0  0  0  0  0
    9.4651   -0.3100    0.0000 H   0  0  0  0  0  0  0  0  0  0  0  0
    9.2382    0.5369    0.0000 H   0  0  0  0  0  0  0  0  0  0  0  0
    2.3100    0.5369    0.0000 H   0  0  0  0  0  0  0  0  0  0  0  0
    1.4631    0.3100    0.0000 H   0  0  0  0  0  0  0  0  0  0  0  0
    1.6900   -0.5369    0.0000 H   0  0  0  0  0  0  0  0  0  0  0  0
    6.0010    3.1541    0.0000 H   0  0  0  0  0  0  0  0  0  0  0  0
    5.7741    4.0010    0.0000 H   0  0  0  0  0  0  0  0  0  0  0  0
    4.9272    3.7741    0.0000 H   0  0  0  0  0  0  0  0  0  0  0  0
    4.9272   -3.1541    0.0000 H   0  0  0  0  0  0  0  0  0  0  0  0
    5.1541   -4.0010    0.0000 H   0  0  0  0  0  0  0  0  0  0  0  0
    6.0010   -3.7741    0.0000 H   0  0  0  0  0  0  0  0  0  0  0  0
  1  2  1  0  0  0  0
  1  3  1  0  0  0  0
  1  4  1  0  0  0  0
  1  5  1  0  0  0  0
  2  6  1  0  0  0  0
  2 18  1  0  0  0  0
  2 19  1  0  0  0  0
  3  7  1  0  0  0  0
  3 20  1  0  0  0  0
  3 21  1  0  0  0  0
  4  8  1  0  0  0  0
  4 22  1  0  0  0  0
  4 23  1  0  0  0  0
  5  9  1  0  0  0  0
  5 24  1  0  0  0  0
  5 25  1  0  0  0  0
  6 10  1  0  0  0  0
  6 26  1  0  0  0  0
  6 27  1  0  0  0  0
  7 11  1  0  0  0  0
  7 28  1  0  0  0  0
  7 29  1  0  0  0  0
  8 12  1  0  0  0  0
  8 30  1  0  0  0  0
  8 31  1  0  0  0  0
  9 13  1  0  0  0  0
  9 32  1  0  0  0  0
  9 33  1  0  0  0  0
 10 14  1  0  0  0  0
 10 34  1  0  0  0  0
 10 35  1  0  0  0  0
 11 15  1  0  0  0  0
 11 36  1  0  0  0  0
 11 37  1  0  0  0  0
 12 16  1  0  0  0  0
 12 38  1  0  0  0  0
 12 39  1  0  0  0  0
 13 17  1  0  0  0  0
 13 40  1  0  0  0  0
 13 41  1  0  0  0  0
 14 42  1  0  0  0  0
 14 43  1  0  0  0  0
 14 44  1  0  0  0  0
 15 45  1  0  0  0  0
 15 46  1  0  0  0  0
 15 47  1  0  0  0  0
 16 48  1  0  0  0  0
 16 49  1  0  0  0  0
 16 50  1  0  0  0  0
 17 51  1  0  0  0  0
 17 52  1  0  0  0  0
 17 53  1  0  0  0  0
M  END
> <PUBCHEM_COMPOUND_CID>
15098

> <PUBCHEM_COMPOUND_CANONICALIZED>
1

> <PUBCHEM_CACTVS_COMPLEXITY>
116

> <PUBCHEM_CACTVS_HBOND_ACCEPTOR>
0

> <PUBCHEM_CACTVS_HBOND_DONOR>
0

> <PUBCHEM_CACTVS_ROTATABLE_BOND>
12

> <PUBCHEM_CACTVS_SUBSKEYS>
AAADcfB4AAAAAAAAAACAAAAAAAAAAAAAAAAAAAAAAAAAAAAAAAAAGAAAAAAACACAAAACAAAAAAAAAAAAAAAAAAAAAAAAAAAAAAAAAAAAAAAAAAAAAAAAAAAAAAAAAAAAAAAAAAAAAAAAAAAAAAAAAAAAAA==

> <PUBCHEM_IUPAC_OPENEYE_NAME>
tetrabutylstannane

> <PUBCHEM_IUPAC_CAS_NAME>
tetrabutylstannane

> <PUBCHEM_IUPAC_NAME_MARKUP>
tetrabutylstannane

> <PUBCHEM_IUPAC_NAME>
tetrabutylstannane

> <PUBCHEM_IUPAC_SYSTEMATIC_NAME>
tetrabutylstannane

> <PUBCHEM_IUPAC_TRADITIONAL_NAME>
tetrabutylstannane

> <PUBCHEM_IUPAC_INCHI>
InChI=1S/4C4H9.Sn/c4*1-3-4-2;/h4*1,3-4H2,2H3;

> <PUBCHEM_IUPAC_INCHIKEY>
AFCAKJKUYFLYFK-UHFFFAOYSA-N

> <PUBCHEM_EXACT_MASS>
348.183904

> <PUBCHEM_MOLECULAR_FORMULA>
C16H36Sn

> <PUBCHEM_MOLECULAR_WEIGHT>
347.2

> <PUBCHEM_SMILES>
CCCC[Sn](CCCC)(CCCC)CCCC

> <PUBCHEM_CONNECTIVITY_SMILES>
CCCC[Sn](CCCC)(CCCC)CCCC

> <PUBCHEM_CACTVS_TPSA>
0

> <PUBCHEM_MONOISOTOPIC_WEIGHT>
348.183904

> <PUBCHEM_TOTAL_CHARGE>
0

> <PUBCHEM_HEAVY_ATOM_COUNT>
17

> <PUBCHEM_ATOM_DEF_STEREO_COUNT>
0

> <PUBCHEM_ATOM_UDEF_STEREO_COUNT>
0

> <PUBCHEM_BOND_DEF_STEREO_COUNT>
0

> <PUBCHEM_BOND_UDEF_STEREO_COUNT>
0

> <PUBCHEM_ISOTOPIC_ATOM_COUNT>
0

> <PUBCHEM_COMPONENT_COUNT>
1

> <PUBCHEM_CACTVS_TAUTO_COUNT>
-1

> <PUBCHEM_COORDINATE_TYPE>
1
5
255

$$$$
