15234
  -OEChem-05122610012D

 31 30  0     0  0  0  0  0  0999 V2000
    4.5981   -0.3170    0.0000 O   0  0  0  0  0  0  0  0  0  0  0  0
    5.4641    1.1830    0.0000 O   0  0  0  0  0  0  0  0  0  0  0  0
    3.7321    1.1830    0.0000 O   0  0  0  0  0  0  0  0  0  0  0  0
    6.3301   -0.3170    0.0000 C   0  0  0  0  0  0  0  0  0  0  0  0
    2.8660   -0.3170    0.0000 C   0  0  0  0  0  0  0  0  0  0  0  0
    7.1962   -0.8170    0.0000 C   0  0  0  0  0  0  0  0  0  0  0  0
    6.8301    0.5490    0.0000 C   0  0  0  0  0  0  0  0  0  0  0  0
    5.8301   -1.1830    0.0000 C   0  0  0  0  0  0  0  0  0  0  0  0
    2.0000   -0.8170    0.0000 C   0  0  0  0  0  0  0  0  0  0  0  0
    2.3660    0.5490    0.0000 C   0  0  0  0  0  0  0  0  0  0  0  0
    3.3660   -1.1830    0.0000 C   0  0  0  0  0  0  0  0  0  0  0  0
    5.4641    0.1830    0.0000 C   0  0  0  0  0  0  0  0  0  0  0  0
    3.7321    0.1830    0.0000 C   0  0  0  0  0  0  0  0  0  0  0  0
    6.8862   -1.3539    0.0000 H   0  0  0  0  0  0  0  0  0  0  0  0
    7.7331   -1.1270    0.0000 H   0  0  0  0  0  0  0  0  0  0  0  0
    7.5062   -0.2801    0.0000 H   0  0  0  0  0  0  0  0  0  0  0  0
    7.3671    0.2390    0.0000 H   0  0  0  0  0  0  0  0  0  0  0  0
    7.1401    1.0860    0.0000 H   0  0  0  0  0  0  0  0  0  0  0  0
    6.2932    0.8590    0.0000 H   0  0  0  0  0  0  0  0  0  0  0  0
    5.2932   -0.8730    0.0000 H   0  0  0  0  0  0  0  0  0  0  0  0
    5.5201   -1.7200    0.0000 H   0  0  0  0  0  0  0  0  0  0  0  0
    6.3671   -1.4930    0.0000 H   0  0  0  0  0  0  0  0  0  0  0  0
    1.6900   -0.2801    0.0000 H   0  0  0  0  0  0  0  0  0  0  0  0
    1.4631   -1.1270    0.0000 H   0  0  0  0  0  0  0  0  0  0  0  0
    2.3100   -1.3539    0.0000 H   0  0  0  0  0  0  0  0  0  0  0  0
    2.9030    0.8590    0.0000 H   0  0  0  0  0  0  0  0  0  0  0  0
    2.0560    1.0860    0.0000 H   0  0  0  0  0  0  0  0  0  0  0  0
    1.8291    0.2390    0.0000 H   0  0  0  0  0  0  0  0  0  0  0  0
    2.8291   -1.4930    0.0000 H   0  0  0  0  0  0  0  0  0  0  0  0
    3.6760   -1.7200    0.0000 H   0  0  0  0  0  0  0  0  0  0  0  0
    3.9030   -0.8730    0.0000 H   0  0  0  0  0  0  0  0  0  0  0  0
  1 12  1  0  0  0  0
  1 13  1  0  0  0  0
  2 12  2  0  0  0  0
  3 13  2  0  0  0  0
  4  6  1  0  0  0  0
  4  7  1  0  0  0  0
  4  8  1  0  0  0  0
  4 12  1  0  0  0  0
  5  9  1  0  0  0  0
  5 10  1  0  0  0  0
  5 11  1  0  0  0  0
  5 13  1  0  0  0  0
  6 14  1  0  0  0  0
  6 15  1  0  0  0  0
  6 16  1  0  0  0  0
  7 17  1  0  0  0  0
  7 18  1  0  0  0  0
  7 19  1  0  0  0  0
  8 20  1  0  0  0  0
  8 21  1  0  0  0  0
  8 22  1  0  0  0  0
  9 23  1  0  0  0  0
  9 24  1  0  0  0  0
  9 25  1  0  0  0  0
 10 26  1  0  0  0  0
 10 27  1  0  0  0  0
 10 28  1  0  0  0  0
 11 29  1  0  0  0  0
 11 30  1  0  0  0  0
 11 31  1  0  0  0  0
M  END
> <PUBCHEM_COMPOUND_CID>
15234

> <PUBCHEM_COMPOUND_CANONICALIZED>
1

> <PUBCHEM_CACTVS_COMPLEXITY>
191

> <PUBCHEM_CACTVS_HBOND_ACCEPTOR>
3

> <PUBCHEM_CACTVS_HBOND_DONOR>
0

> <PUBCHEM_CACTVS_ROTATABLE_BOND>
4

> <PUBCHEM_CACTVS_SUBSKEYS>
AAADceBwMAAAAAAAAAAAAAAAAAAAAAAAAAAAAAAAAAAAAAAAAAAAGgAAAAAADgCAgAACCAAABAAIAACQCAAAAAAAAAAAAAEAAAAAAAAAAAACAAAAAAAAAAAAAAAAAAAAAAAAAAAAAAAAAAAAAAAAAAAAAA==

> <PUBCHEM_IUPAC_OPENEYE_NAME>
2,2-dimethylpropanoyl 2,2-dimethylpropanoate

> <PUBCHEM_IUPAC_CAS_NAME>
2,2-dimethylpropanoic acid (2,2-dimethyl-1-oxopropyl) ester

> <PUBCHEM_IUPAC_NAME_MARKUP>
2,2-dimethylpropanoyl 2,2-dimethylpropanoate

> <PUBCHEM_IUPAC_NAME>
2,2-dimethylpropanoyl 2,2-dimethylpropanoate

> <PUBCHEM_IUPAC_SYSTEMATIC_NAME>
2,2-dimethylpropanoyl 2,2-dimethylpropanoate

> <PUBCHEM_IUPAC_TRADITIONAL_NAME>
2,2-dimethylpropionic acid pivaloyl ester

> <PUBCHEM_IUPAC_INCHI>
InChI=1S/C10H18O3/c1-9(2,3)7(11)13-8(12)10(4,5)6/h1-6H3

> <PUBCHEM_IUPAC_INCHIKEY>
PGZVFRAEAAXREB-UHFFFAOYSA-N

> <PUBCHEM_XLOGP3_AA>
2.7

> <PUBCHEM_EXACT_MASS>
186.125594432

> <PUBCHEM_MOLECULAR_FORMULA>
C10H18O3

> <PUBCHEM_MOLECULAR_WEIGHT>
186.25

> <PUBCHEM_SMILES>
CC(C)(C)C(=O)OC(=O)C(C)(C)C

> <PUBCHEM_CONNECTIVITY_SMILES>
CC(C)(C)C(=O)OC(=O)C(C)(C)C

> <PUBCHEM_CACTVS_TPSA>
43.4

> <PUBCHEM_MONOISOTOPIC_WEIGHT>
186.125594432

> <PUBCHEM_TOTAL_CHARGE>
0

> <PUBCHEM_HEAVY_ATOM_COUNT>
13

> <PUBCHEM_ATOM_DEF_STEREO_COUNT>
0

> <PUBCHEM_ATOM_UDEF_STEREO_COUNT>
0

> <PUBCHEM_BOND_DEF_STEREO_COUNT>
0

> <PUBCHEM_BOND_UDEF_STEREO_COUNT>
0

> <PUBCHEM_ISOTOPIC_ATOM_COUNT>
0

> <PUBCHEM_COMPONENT_COUNT>
1

> <PUBCHEM_CACTVS_TAUTO_COUNT>
-1

> <PUBCHEM_COORDINATE_TYPE>
1
5
255

$$$$
