15283
  -OEChem-05122609522D

 25 25  0     1  0  0  0  0  0999 V2000
    3.0000    1.8450    0.0000 O   0  0  0  0  0  0  0  0  0  0  0  0
    3.0000    0.8450    0.0000 C   0  0  3  0  0  0  0  0  0  0  0  0
    4.0000    0.8450    0.0000 C   0  0  0  0  0  0  0  0  0  0  0  0
    3.0000   -0.1550    0.0000 C   0  0  0  0  0  0  0  0  0  0  0  0
    2.0000    0.8450    0.0000 C   0  0  0  0  0  0  0  0  0  0  0  0
    4.5000    1.7110    0.0000 C   0  0  0  0  0  0  0  0  0  0  0  0
    2.1340   -0.6550    0.0000 C   0  0  0  0  0  0  0  0  0  0  0  0
    3.8660   -0.6550    0.0000 C   0  0  0  0  0  0  0  0  0  0  0  0
    2.1340   -1.6550    0.0000 C   0  0  0  0  0  0  0  0  0  0  0  0
    3.8660   -1.6550    0.0000 C   0  0  0  0  0  0  0  0  0  0  0  0
    3.0000   -2.1550    0.0000 C   0  0  0  0  0  0  0  0  0  0  0  0
    3.8923    0.2344    0.0000 H   0  0  0  0  0  0  0  0  0  0  0  0
    4.5826    0.6329    0.0000 H   0  0  0  0  0  0  0  0  0  0  0  0
    2.0000    1.4650    0.0000 H   0  0  0  0  0  0  0  0  0  0  0  0
    1.3800    0.8450    0.0000 H   0  0  0  0  0  0  0  0  0  0  0  0
    2.0000    0.2250    0.0000 H   0  0  0  0  0  0  0  0  0  0  0  0
    5.0369    1.4010    0.0000 H   0  0  0  0  0  0  0  0  0  0  0  0
    4.8100    2.2480    0.0000 H   0  0  0  0  0  0  0  0  0  0  0  0
    3.9631    2.0210    0.0000 H   0  0  0  0  0  0  0  0  0  0  0  0
    1.5970   -0.3450    0.0000 H   0  0  0  0  0  0  0  0  0  0  0  0
    4.4030   -0.3450    0.0000 H   0  0  0  0  0  0  0  0  0  0  0  0
    3.5369    2.1550    0.0000 H   0  0  0  0  0  0  0  0  0  0  0  0
    1.5970   -1.9650    0.0000 H   0  0  0  0  0  0  0  0  0  0  0  0
    4.4030   -1.9650    0.0000 H   0  0  0  0  0  0  0  0  0  0  0  0
    3.0000   -2.7750    0.0000 H   0  0  0  0  0  0  0  0  0  0  0  0
  1  2  1  0  0  0  0
  1 22  1  0  0  0  0
  2  3  1  0  0  0  0
  2  4  1  0  0  0  0
  2  5  1  0  0  0  0
  3  6  1  0  0  0  0
  3 12  1  0  0  0  0
  3 13  1  0  0  0  0
  4  7  2  0  0  0  0
  4  8  1  0  0  0  0
  5 14  1  0  0  0  0
  5 15  1  0  0  0  0
  5 16  1  0  0  0  0
  6 17  1  0  0  0  0
  6 18  1  0  0  0  0
  6 19  1  0  0  0  0
  7  9  1  0  0  0  0
  7 20  1  0  0  0  0
  8 10  2  0  0  0  0
  8 21  1  0  0  0  0
  9 11  2  0  0  0  0
  9 23  1  0  0  0  0
 10 11  1  0  0  0  0
 10 24  1  0  0  0  0
 11 25  1  0  0  0  0
M  END
> <PUBCHEM_COMPOUND_CID>
15283

> <PUBCHEM_COMPOUND_CANONICALIZED>
1

> <PUBCHEM_CACTVS_COMPLEXITY>
116

> <PUBCHEM_CACTVS_HBOND_ACCEPTOR>
1

> <PUBCHEM_CACTVS_HBOND_DONOR>
1

> <PUBCHEM_CACTVS_ROTATABLE_BOND>
2

> <PUBCHEM_CACTVS_SUBSKEYS>
AAADccBwIAAAAAAAAAAAAAAAAAAAAAAAAAAwAAAAAAAAAAABAAAAGgAACAAADESAmAAyAIAAAgCAAiBCAAACAAAgAAAIiAAACIgIJiKAERCAcAAkwAEImAeAwOAOgAAAAAAAAAAAAAAAAAAAAAAAAAAAAA==

> <PUBCHEM_IUPAC_OPENEYE_NAME>
2-phenylbutan-2-ol

> <PUBCHEM_IUPAC_CAS_NAME>
2-phenyl-2-butanol

> <PUBCHEM_IUPAC_NAME_MARKUP>
2-phenylbutan-2-ol

> <PUBCHEM_IUPAC_NAME>
2-phenylbutan-2-ol

> <PUBCHEM_IUPAC_SYSTEMATIC_NAME>
2-phenylbutan-2-ol

> <PUBCHEM_IUPAC_TRADITIONAL_NAME>
2-phenylbutan-2-ol

> <PUBCHEM_IUPAC_INCHI>
InChI=1S/C10H14O/c1-3-10(2,11)9-7-5-4-6-8-9/h4-8,11H,3H2,1-2H3

> <PUBCHEM_IUPAC_INCHIKEY>
XGLHYBVJPSZXIF-UHFFFAOYSA-N

> <PUBCHEM_XLOGP3_AA>
2.2

> <PUBCHEM_EXACT_MASS>
150.104465066

> <PUBCHEM_MOLECULAR_FORMULA>
C10H14O

> <PUBCHEM_MOLECULAR_WEIGHT>
150.22

> <PUBCHEM_SMILES>
CCC(C)(C1=CC=CC=C1)O

> <PUBCHEM_CONNECTIVITY_SMILES>
CCC(C)(C1=CC=CC=C1)O

> <PUBCHEM_CACTVS_TPSA>
20.2

> <PUBCHEM_MONOISOTOPIC_WEIGHT>
150.104465066

> <PUBCHEM_TOTAL_CHARGE>
0

> <PUBCHEM_HEAVY_ATOM_COUNT>
11

> <PUBCHEM_ATOM_DEF_STEREO_COUNT>
0

> <PUBCHEM_ATOM_UDEF_STEREO_COUNT>
1

> <PUBCHEM_BOND_DEF_STEREO_COUNT>
0

> <PUBCHEM_BOND_UDEF_STEREO_COUNT>
0

> <PUBCHEM_ISOTOPIC_ATOM_COUNT>
0

> <PUBCHEM_COMPONENT_COUNT>
1

> <PUBCHEM_CACTVS_TAUTO_COUNT>
-1

> <PUBCHEM_COORDINATE_TYPE>
1
5
255

> <PUBCHEM_BONDANNOTATIONS>
10  11  8
2  5  3
4  7  8
4  8  8
7  9  8
8  10  8
9  11  8

$$$$
