154380
  -OEChem-05122609152D

 30 31  0     1  0  0  0  0  0999 V2000
    2.8660    3.7500    0.0000 N   0  0  0  0  0  0  0  0  0  0  0  0
    2.0000   -3.7500    0.0000 N   0  0  0  0  0  0  0  0  0  0  0  0
    2.8660   -0.2500    0.0000 C   0  0  3  0  0  0  0  0  0  0  0  0
    2.0000    0.2500    0.0000 C   0  0  0  0  0  0  0  0  0  0  0  0
    2.0000    1.2500    0.0000 C   0  0  0  0  0  0  0  0  0  0  0  0
    3.7321    0.2500    0.0000 C   0  0  0  0  0  0  0  0  0  0  0  0
    2.8660    1.7500    0.0000 C   0  0  3  0  0  0  0  0  0  0  0  0
    3.7321    1.2500    0.0000 C   0  0  0  0  0  0  0  0  0  0  0  0
    2.8660   -1.2500    0.0000 C   0  0  0  0  0  0  0  0  0  0  0  0
    4.6260   -0.2847    0.0000 C   0  0  0  0  0  0  0  0  0  0  0  0
    4.6260    1.7847    0.0000 C   0  0  0  0  0  0  0  0  0  0  0  0
    2.0000   -1.7500    0.0000 C   0  0  0  0  0  0  0  0  0  0  0  0
    5.5321    0.2292    0.0000 C   0  0  0  0  0  0  0  0  0  0  0  0
    2.8660    2.7500    0.0000 C   0  0  0  0  0  0  0  0  0  0  0  0
    5.5321    1.2708    0.0000 C   0  0  0  0  0  0  0  0  0  0  0  0
    2.0000   -2.7500    0.0000 C   0  0  0  0  0  0  0  0  0  0  0  0
    3.4030   -0.5600    0.0000 H   0  0  0  0  0  0  0  0  0  0  0  0
    1.3894    0.3577    0.0000 H   0  0  0  0  0  0  0  0  0  0  0  0
    1.7880   -0.3326    0.0000 H   0  0  0  0  0  0  0  0  0  0  0  0
    1.7880    1.8326    0.0000 H   0  0  0  0  0  0  0  0  0  0  0  0
    1.3894    1.1423    0.0000 H   0  0  0  0  0  0  0  0  0  0  0  0
    3.4030    2.0600    0.0000 H   0  0  0  0  0  0  0  0  0  0  0  0
    3.0781   -1.8326    0.0000 H   0  0  0  0  0  0  0  0  0  0  0  0
    3.4766   -1.1423    0.0000 H   0  0  0  0  0  0  0  0  0  0  0  0
    4.6188   -0.9046    0.0000 H   0  0  0  0  0  0  0  0  0  0  0  0
    4.6188    2.4046    0.0000 H   0  0  0  0  0  0  0  0  0  0  0  0
    1.7880   -1.1674    0.0000 H   0  0  0  0  0  0  0  0  0  0  0  0
    1.3894   -1.8577    0.0000 H   0  0  0  0  0  0  0  0  0  0  0  0
    6.0678   -0.0829    0.0000 H   0  0  0  0  0  0  0  0  0  0  0  0
    6.0678    1.5829    0.0000 H   0  0  0  0  0  0  0  0  0  0  0  0
  1 14  3  0  0  0  0
  2 16  3  0  0  0  0
  3  4  1  0  0  0  0
  3  6  1  0  0  0  0
  3  9  1  0  0  0  0
  3 17  1  0  0  0  0
  4  5  1  0  0  0  0
  4 18  1  0  0  0  0
  4 19  1  0  0  0  0
  5  7  1  0  0  0  0
  5 20  1  0  0  0  0
  5 21  1  0  0  0  0
  6  8  1  0  0  0  0
  6 10  2  0  0  0  0
  7  8  1  0  0  0  0
  7 14  1  0  0  0  0
  7 22  1  0  0  0  0
  8 11  2  0  0  0  0
  9 12  1  0  0  0  0
  9 23  1  0  0  0  0
  9 24  1  0  0  0  0
 10 13  1  0  0  0  0
 10 25  1  0  0  0  0
 11 15  1  0  0  0  0
 11 26  1  0  0  0  0
 12 16  1  0  0  0  0
 12 27  1  0  0  0  0
 12 28  1  0  0  0  0
 13 15  2  0  0  0  0
 13 29  1  0  0  0  0
 15 30  1  0  0  0  0
M  END
> <PUBCHEM_COMPOUND_CID>
154380

> <PUBCHEM_COMPOUND_CANONICALIZED>
1

> <PUBCHEM_CACTVS_COMPLEXITY>
329

> <PUBCHEM_CACTVS_HBOND_ACCEPTOR>
2

> <PUBCHEM_CACTVS_HBOND_DONOR>
0

> <PUBCHEM_CACTVS_ROTATABLE_BOND>
2

> <PUBCHEM_CACTVS_SUBSKEYS>
AAADccBzAAAAAAAAAAAAAAAAAAAAAAAAAAAwYAAAAAAAAADBAAAAHAAAAAAADQCBGAAwAIAAAACQBiBCAAACAAAgAAAIiAAAAIgIoCKAERCAIAAggAAIiA8AgMAOgAAAAAAQAACAAAQAACAAAAAAAAAAAA==

> <PUBCHEM_IUPAC_OPENEYE_NAME>
4-(2-cyanoethyl)tetralin-1-carbonitrile

> <PUBCHEM_IUPAC_CAS_NAME>
4-(2-cyanoethyl)-1,2,3,4-tetrahydronaphthalene-1-carbonitrile

> <PUBCHEM_IUPAC_NAME_MARKUP>
4-(2-cyanoethyl)-1,2,3,4-tetrahydronaphthalene-1-carbonitrile

> <PUBCHEM_IUPAC_NAME>
4-(2-cyanoethyl)-1,2,3,4-tetrahydronaphthalene-1-carbonitrile

> <PUBCHEM_IUPAC_SYSTEMATIC_NAME>
4-(2-cyanoethyl)-1,2,3,4-tetrahydronaphthalene-1-carbonitrile

> <PUBCHEM_IUPAC_TRADITIONAL_NAME>
4-(2-cyanoethyl)tetralin-1-carbonitrile

> <PUBCHEM_IUPAC_INCHI>
InChI=1S/C14H14N2/c15-9-3-4-11-7-8-12(10-16)14-6-2-1-5-13(11)14/h1-2,5-6,11-12H,3-4,7-8H2

> <PUBCHEM_IUPAC_INCHIKEY>
JRUGFHHEKLYFPC-UHFFFAOYSA-N

> <PUBCHEM_XLOGP3_AA>
2.4

> <PUBCHEM_EXACT_MASS>
210.115698455

> <PUBCHEM_MOLECULAR_FORMULA>
C14H14N2

> <PUBCHEM_MOLECULAR_WEIGHT>
210.27

> <PUBCHEM_SMILES>
C1CC(C2=CC=CC=C2C1CCC#N)C#N

> <PUBCHEM_CONNECTIVITY_SMILES>
C1CC(C2=CC=CC=C2C1CCC#N)C#N

> <PUBCHEM_CACTVS_TPSA>
47.6

> <PUBCHEM_MONOISOTOPIC_WEIGHT>
210.115698455

> <PUBCHEM_TOTAL_CHARGE>
0

> <PUBCHEM_HEAVY_ATOM_COUNT>
16

> <PUBCHEM_ATOM_DEF_STEREO_COUNT>
0

> <PUBCHEM_ATOM_UDEF_STEREO_COUNT>
2

> <PUBCHEM_BOND_DEF_STEREO_COUNT>
0

> <PUBCHEM_BOND_UDEF_STEREO_COUNT>
0

> <PUBCHEM_ISOTOPIC_ATOM_COUNT>
0

> <PUBCHEM_COMPONENT_COUNT>
1

> <PUBCHEM_CACTVS_TAUTO_COUNT>
-1

> <PUBCHEM_COORDINATE_TYPE>
1
5
255

> <PUBCHEM_BONDANNOTATIONS>
10  13  8
11  15  8
13  15  8
3  9  3
6  10  8
6  8  8
7  14  3
8  11  8

$$$$
