154814138
  -OEChem-05122608462D

 51 53  0     0  0  0  0  0  0999 V2000
    5.9659    3.4775    0.0000 O   0  0  0  0  0  0  0  0  0  0  0  0
    7.5391    1.2704    0.0000 O   0  0  0  0  0  0  0  0  0  0  0  0
    3.5000    2.3526    0.0000 O   0  0  0  0  0  0  0  0  0  0  0  0
    7.5981   -3.4775    0.0000 O   0  0  0  0  0  0  0  0  0  0  0  0
    5.8660   -1.4775    0.0000 O   0  0  0  0  0  0  0  0  0  0  0  0
    9.2400    1.6534    0.0000 O   0  0  0  0  0  0  0  0  0  0  0  0
    2.0000    1.4866    0.0000 O   0  0  0  0  0  0  0  0  0  0  0  0
    9.3301   -3.4775    0.0000 O   0  0  0  0  0  0  0  0  0  0  0  0
    4.7412   -2.9434    0.0000 O   0  0  0  0  0  0  0  0  0  0  0  0
    6.8320    2.9775    0.0000 C   0  0  0  0  0  0  0  0  0  0  0  0
    5.0000    3.2187    0.0000 C   0  0  0  0  0  0  0  0  0  0  0  0
    6.8320    1.9775    0.0000 C   0  0  0  0  0  0  0  0  0  0  0  0
    4.5000    2.3526    0.0000 C   0  0  0  0  0  0  0  0  0  0  0  0
    8.4641    0.0225    0.0000 C   0  0  0  0  0  0  0  0  0  0  0  0
    3.5000    0.6206    0.0000 C   0  0  0  0  0  0  0  0  0  0  0  0
    8.4641   -1.9775    0.0000 C   0  0  0  0  0  0  0  0  0  0  0  0
    4.5000   -1.1115    0.0000 C   0  0  0  0  0  0  0  0  0  0  0  0
    7.5981   -0.4775    0.0000 C   0  0  0  0  0  0  0  0  0  0  0  0
    4.5067    0.6284    0.0000 C   0  0  0  0  0  0  0  0  0  0  0  0
    9.3301   -0.4775    0.0000 C   0  0  0  0  0  0  0  0  0  0  0  0
    3.0000   -0.2454    0.0000 C   0  0  0  0  0  0  0  0  0  0  0  0
    7.5981   -1.4775    0.0000 C   0  0  0  0  0  0  0  0  0  0  0  0
    5.0101   -0.2435    0.0000 C   0  0  0  0  0  0  0  0  0  0  0  0
    9.3301   -1.4775    0.0000 C   0  0  0  0  0  0  0  0  0  0  0  0
    3.5000   -1.1115    0.0000 C   0  0  0  0  0  0  0  0  0  0  0  0
    6.7321   -2.9775    0.0000 C   0  0  0  0  0  0  0  0  0  0  0  0
    6.7321   -1.9775    0.0000 C   0  0  0  0  0  0  0  0  0  0  0  0
    8.4641    1.0225    0.0000 C   0  0  0  0  0  0  0  0  0  0  0  0
    3.0000    1.4866    0.0000 C   0  0  0  0  0  0  0  0  0  0  0  0
    8.4641   -2.9775    0.0000 C   0  0  0  0  0  0  0  0  0  0  0  0
    5.0000   -1.9775    0.0000 C   0  0  0  0  0  0  0  0  0  0  0  0
    7.4425    2.8698    0.0000 H   0  0  0  0  0  0  0  0  0  0  0  0
    7.0440    3.5601    0.0000 H   0  0  0  0  0  0  0  0  0  0  0  0
    5.0000    3.8387    0.0000 H   0  0  0  0  0  0  0  0  0  0  0  0
    4.4011    3.3791    0.0000 H   0  0  0  0  0  0  0  0  0  0  0  0
    6.2331    2.1380    0.0000 H   0  0  0  0  0  0  0  0  0  0  0  0
    6.5220    1.4406    0.0000 H   0  0  0  0  0  0  0  0  0  0  0  0
    4.3923    1.7421    0.0000 H   0  0  0  0  0  0  0  0  0  0  0  0
    5.0826    2.1406    0.0000 H   0  0  0  0  0  0  0  0  0  0  0  0
    7.0611   -0.1675    0.0000 H   0  0  0  0  0  0  0  0  0  0  0  0
    4.8146    1.1665    0.0000 H   0  0  0  0  0  0  0  0  0  0  0  0
    9.8671   -0.1675    0.0000 H   0  0  0  0  0  0  0  0  0  0  0  0
    2.3800   -0.2454    0.0000 H   0  0  0  0  0  0  0  0  0  0  0  0
    6.1215   -2.8698    0.0000 H   0  0  0  0  0  0  0  0  0  0  0  0
    6.5200   -3.5601    0.0000 H   0  0  0  0  0  0  0  0  0  0  0  0
    7.3426   -2.0852    0.0000 H   0  0  0  0  0  0  0  0  0  0  0  0
    6.9441   -1.3949    0.0000 H   0  0  0  0  0  0  0  0  0  0  0  0
    7.0611   -1.7875    0.0000 H   0  0  0  0  0  0  0  0  0  0  0  0
    5.6301   -0.2459    0.0000 H   0  0  0  0  0  0  0  0  0  0  0  0
    9.8671   -1.7875    0.0000 H   0  0  0  0  0  0  0  0  0  0  0  0
    3.1900   -1.6484    0.0000 H   0  0  0  0  0  0  0  0  0  0  0  0
  1 10  1  0  0  0  0
  1 11  1  0  0  0  0
  2 12  1  0  0  0  0
  2 28  1  0  0  0  0
  3 13  1  0  0  0  0
  3 29  1  0  0  0  0
  4 26  1  0  0  0  0
  4 30  1  0  0  0  0
  5 27  1  0  0  0  0
  5 31  1  0  0  0  0
  6 28  2  0  0  0  0
  7 29  2  0  0  0  0
  8 30  2  0  0  0  0
  9 31  2  0  0  0  0
 10 12  1  0  0  0  0
 10 32  1  0  0  0  0
 10 33  1  0  0  0  0
 11 13  1  0  0  0  0
 11 34  1  0  0  0  0
 11 35  1  0  0  0  0
 12 36  1  0  0  0  0
 12 37  1  0  0  0  0
 13 38  1  0  0  0  0
 13 39  1  0  0  0  0
 14 18  2  0  0  0  0
 14 20  1  0  0  0  0
 14 28  1  0  0  0  0
 15 19  2  0  0  0  0
 15 21  1  0  0  0  0
 15 29  1  0  0  0  0
 16 22  2  0  0  0  0
 16 24  1  0  0  0  0
 16 30  1  0  0  0  0
 17 23  2  0  0  0  0
 17 25  1  0  0  0  0
 17 31  1  0  0  0  0
 18 22  1  0  0  0  0
 18 40  1  0  0  0  0
 19 23  1  0  0  0  0
 19 41  1  0  0  0  0
 20 24  2  0  0  0  0
 20 42  1  0  0  0  0
 21 25  2  0  0  0  0
 21 43  1  0  0  0  0
 22 48  1  0  0  0  0
 23 49  1  0  0  0  0
 24 50  1  0  0  0  0
 25 51  1  0  0  0  0
 26 27  1  0  0  0  0
 26 44  1  0  0  0  0
 26 45  1  0  0  0  0
 27 46  1  0  0  0  0
 27 47  1  0  0  0  0
M  END
> <PUBCHEM_COMPOUND_CID>
154814138

> <PUBCHEM_COMPOUND_CANONICALIZED>
1

> <PUBCHEM_CACTVS_COMPLEXITY>
577

> <PUBCHEM_CACTVS_HBOND_ACCEPTOR>
9

> <PUBCHEM_CACTVS_HBOND_DONOR>
0

> <PUBCHEM_CACTVS_ROTATABLE_BOND>
0

> <PUBCHEM_CACTVS_SUBSKEYS>
AAADceB4PAAAAAAAAAAAAAAAAAAAAAAAAAAwYAAAAAAAAAABQAAAGgAAAAAADACgmAIwCIAABACIAiDSCAACAAAkAAAIiAEACMgJJjKANRiCMQAkwAEKqYeIyDCOQAAAAAAAAACAAAAAAAAAAAAAAAAAAA==

> <PUBCHEM_IUPAC_OPENEYE_NAME>
3,6,13,16,19-pentaoxatricyclo[19.2.2.28,11]heptacosa-1(24),8,10,21(25),22,26-hexaene-2,7,12,20-tetrone

> <PUBCHEM_IUPAC_CAS_NAME>
3,6,13,16,19-pentaoxatricyclo[19.2.2.28,11]heptacosa-1(24),8,10,21(25),22,26-hexaene-2,7,12,20-tetrone

> <PUBCHEM_IUPAC_NAME_MARKUP>
3,6,13,16,19-pentaoxatricyclo[19.2.2.2<SUP>8,11</SUP>]heptacosa-1(24),8,10,21(25),22,26-hexaene-2,7,12,20-tetrone

> <PUBCHEM_IUPAC_NAME>
3,6,13,16,19-pentaoxatricyclo[19.2.2.28,11]heptacosa-1(24),8,10,21(25),22,26-hexaene-2,7,12,20-tetrone

> <PUBCHEM_IUPAC_SYSTEMATIC_NAME>
3,6,13,16,19-pentaoxatricyclo[19.2.2.28,11]heptacosa-1(24),8,10,21(25),22,26-hexaene-2,7,12,20-tetrone

> <PUBCHEM_IUPAC_TRADITIONAL_NAME>
3,6,13,16,19-pentaoxatricyclo[19.2.2.28,11]heptacosa-1(24),8,10,21(25),22,26-hexaene-2,7,12,20-diquinone

> <PUBCHEM_IUPAC_INCHI>
InChI=1S/C22H20O9/c23-19-15-1-5-17(6-2-15)21(25)30-13-14-31-22(26)18-7-3-16(4-8-18)20(24)29-12-10-27-9-11-28-19/h1-8H,9-14H2

> <PUBCHEM_IUPAC_INCHIKEY>
XQRMWPQRQZCZHJ-UHFFFAOYSA-N

> <PUBCHEM_XLOGP3_AA>
2.7

> <PUBCHEM_EXACT_MASS>
428.11073221

> <PUBCHEM_MOLECULAR_FORMULA>
C22H20O9

> <PUBCHEM_MOLECULAR_WEIGHT>
428.4

> <PUBCHEM_SMILES>
C1COC(=O)C2=CC=C(C=C2)C(=O)OCCOC(=O)C3=CC=C(C=C3)C(=O)OCCO1

> <PUBCHEM_CONNECTIVITY_SMILES>
C1COC(=O)C2=CC=C(C=C2)C(=O)OCCOC(=O)C3=CC=C(C=C3)C(=O)OCCO1

> <PUBCHEM_CACTVS_TPSA>
114

> <PUBCHEM_MONOISOTOPIC_WEIGHT>
428.11073221

> <PUBCHEM_TOTAL_CHARGE>
0

> <PUBCHEM_HEAVY_ATOM_COUNT>
31

> <PUBCHEM_ATOM_DEF_STEREO_COUNT>
0

> <PUBCHEM_ATOM_UDEF_STEREO_COUNT>
0

> <PUBCHEM_BOND_DEF_STEREO_COUNT>
0

> <PUBCHEM_BOND_UDEF_STEREO_COUNT>
0

> <PUBCHEM_ISOTOPIC_ATOM_COUNT>
0

> <PUBCHEM_COMPONENT_COUNT>
1

> <PUBCHEM_CACTVS_TAUTO_COUNT>
-1

> <PUBCHEM_COORDINATE_TYPE>
1
5
255

> <PUBCHEM_BONDANNOTATIONS>
14  18  8
14  20  8
15  19  8
15  21  8
16  22  8
16  24  8
17  23  8
17  25  8
18  22  8
19  23  8
20  24  8
21  25  8

$$$$
