15604
  -OEChem-05122609452D

 26 28  0     0  0  0  0  0  0999 V2000
    5.3364    0.2745    0.0000 C   0  0  0  0  0  0  0  0  0  0  0  0
    4.5274    0.8623    0.0000 C   0  0  0  0  0  0  0  0  0  0  0  0
    5.0274   -0.6766    0.0000 C   0  0  0  0  0  0  0  0  0  0  0  0
    3.7183    0.2745    0.0000 C   0  0  0  0  0  0  0  0  0  0  0  0
    4.0274   -0.6766    0.0000 C   0  0  0  0  0  0  0  0  0  0  0  0
    6.3518    0.5067    0.0000 C   0  0  0  0  0  0  0  0  0  0  0  0
    5.7123   -1.4613    0.0000 C   0  0  0  0  0  0  0  0  0  0  0  0
    2.7029    0.5067    0.0000 C   0  0  0  0  0  0  0  0  0  0  0  0
    3.3424   -1.4613    0.0000 C   0  0  0  0  0  0  0  0  0  0  0  0
    7.0547   -0.2619    0.0000 C   0  0  0  0  0  0  0  0  0  0  0  0
    6.7328   -1.2526    0.0000 C   0  0  0  0  0  0  0  0  0  0  0  0
    6.6498    1.4613    0.0000 C   0  0  0  0  0  0  0  0  0  0  0  0
    2.0000   -0.2619    0.0000 C   0  0  0  0  0  0  0  0  0  0  0  0
    2.3219   -1.2526    0.0000 C   0  0  0  0  0  0  0  0  0  0  0  0
    4.9422    1.3230    0.0000 H   0  0  0  0  0  0  0  0  0  0  0  0
    4.1125    1.3230    0.0000 H   0  0  0  0  0  0  0  0  0  0  0  0
    5.5139   -2.0487    0.0000 H   0  0  0  0  0  0  0  0  0  0  0  0
    2.5182    1.0986    0.0000 H   0  0  0  0  0  0  0  0  0  0  0  0
    3.5408   -2.0487    0.0000 H   0  0  0  0  0  0  0  0  0  0  0  0
    7.6607   -0.1307    0.0000 H   0  0  0  0  0  0  0  0  0  0  0  0
    7.1459   -1.7149    0.0000 H   0  0  0  0  0  0  0  0  0  0  0  0
    7.2416    1.2766    0.0000 H   0  0  0  0  0  0  0  0  0  0  0  0
    6.8345    2.0531    0.0000 H   0  0  0  0  0  0  0  0  0  0  0  0
    6.0580    1.6461    0.0000 H   0  0  0  0  0  0  0  0  0  0  0  0
    1.3941   -0.1307    0.0000 H   0  0  0  0  0  0  0  0  0  0  0  0
    1.9088   -1.7149    0.0000 H   0  0  0  0  0  0  0  0  0  0  0  0
  1  2  1  0  0  0  0
  1  3  1  0  0  0  0
  1  6  2  0  0  0  0
  2  4  1  0  0  0  0
  2 15  1  0  0  0  0
  2 16  1  0  0  0  0
  3  5  1  0  0  0  0
  3  7  2  0  0  0  0
  4  5  1  0  0  0  0
  4  8  2  0  0  0  0
  5  9  2  0  0  0  0
  6 10  1  0  0  0  0
  6 12  1  0  0  0  0
  7 11  1  0  0  0  0
  7 17  1  0  0  0  0
  8 13  1  0  0  0  0
  8 18  1  0  0  0  0
  9 14  1  0  0  0  0
  9 19  1  0  0  0  0
 10 11  2  0  0  0  0
 10 20  1  0  0  0  0
 11 21  1  0  0  0  0
 12 22  1  0  0  0  0
 12 23  1  0  0  0  0
 12 24  1  0  0  0  0
 13 14  2  0  0  0  0
 13 25  1  0  0  0  0
 14 26  1  0  0  0  0
M  END
> <PUBCHEM_COMPOUND_CID>
15604

> <PUBCHEM_COMPOUND_CANONICALIZED>
1

> <PUBCHEM_CACTVS_COMPLEXITY>
208

> <PUBCHEM_CACTVS_HBOND_ACCEPTOR>
0

> <PUBCHEM_CACTVS_HBOND_DONOR>
0

> <PUBCHEM_CACTVS_ROTATABLE_BOND>
0

> <PUBCHEM_CACTVS_SUBSKEYS>
AAADccBwAAAAAAAAAAAAAAAAAAAAAYAAAAAwYAAAAAAAAGABQAAAGAAAAAAADACAGAAyAIAAAACAAiBCAAACAAAgAAAIiAAAAIgIICKAERCAIAAggAAIiAcAgMAOgAACAAAQAAAAAAQAACAAAQAACAAAAA==

> <PUBCHEM_IUPAC_OPENEYE_NAME>
1-methyl-9H-fluorene

> <PUBCHEM_IUPAC_CAS_NAME>
1-methyl-9H-fluorene

> <PUBCHEM_IUPAC_NAME_MARKUP>
1-methyl-9<I>H</I>-fluorene

> <PUBCHEM_IUPAC_NAME>
1-methyl-9H-fluorene

> <PUBCHEM_IUPAC_SYSTEMATIC_NAME>
1-methyl-9H-fluorene

> <PUBCHEM_IUPAC_TRADITIONAL_NAME>
1-methyl-9H-fluorene

> <PUBCHEM_IUPAC_INCHI>
InChI=1S/C14H12/c1-10-5-4-8-13-12-7-3-2-6-11(12)9-14(10)13/h2-8H,9H2,1H3

> <PUBCHEM_IUPAC_INCHIKEY>
GKEUODMJRFDLJY-UHFFFAOYSA-N

> <PUBCHEM_XLOGP3>
5

> <PUBCHEM_EXACT_MASS>
180.093900383

> <PUBCHEM_MOLECULAR_FORMULA>
C14H12

> <PUBCHEM_MOLECULAR_WEIGHT>
180.24

> <PUBCHEM_SMILES>
CC1=C2CC3=CC=CC=C3C2=CC=C1

> <PUBCHEM_CONNECTIVITY_SMILES>
CC1=C2CC3=CC=CC=C3C2=CC=C1

> <PUBCHEM_CACTVS_TPSA>
0

> <PUBCHEM_MONOISOTOPIC_WEIGHT>
180.093900383

> <PUBCHEM_TOTAL_CHARGE>
0

> <PUBCHEM_HEAVY_ATOM_COUNT>
14

> <PUBCHEM_ATOM_DEF_STEREO_COUNT>
0

> <PUBCHEM_ATOM_UDEF_STEREO_COUNT>
0

> <PUBCHEM_BOND_DEF_STEREO_COUNT>
0

> <PUBCHEM_BOND_UDEF_STEREO_COUNT>
0

> <PUBCHEM_ISOTOPIC_ATOM_COUNT>
0

> <PUBCHEM_COMPONENT_COUNT>
1

> <PUBCHEM_CACTVS_TAUTO_COUNT>
-1

> <PUBCHEM_COORDINATE_TYPE>
1
5
255

> <PUBCHEM_BONDANNOTATIONS>
1  3  8
1  6  8
10  11  8
13  14  8
3  7  8
4  5  8
4  8  8
5  9  8
6  10  8
7  11  8
8  13  8
9  14  8

$$$$
