15687
  -OEChem-05122609492D

 18 18  0     0  0  0  0  0  0999 V2000
    3.7071    1.2071    0.0000 O   0  0  0  0  0  0  0  0  0  0  0  0
    3.7071   -1.2071    0.0000 O   0  0  0  0  0  0  0  0  0  0  0  0
    2.0000   -0.5000    0.0000 O   0  0  0  0  0  0  0  0  0  0  0  0
    4.4142    0.5000    0.0000 C   0  0  0  0  0  0  0  0  0  0  0  0
    2.7071    1.2071    0.0000 C   0  0  0  0  0  0  0  0  0  0  0  0
    4.4142   -0.5000    0.0000 C   0  0  0  0  0  0  0  0  0  0  0  0
    2.0000    0.5000    0.0000 C   0  0  0  0  0  0  0  0  0  0  0  0
    2.7071   -1.2071    0.0000 C   0  0  0  0  0  0  0  0  0  0  0  0
    5.0131    0.3395    0.0000 H   0  0  0  0  0  0  0  0  0  0  0  0
    4.7242    1.0369    0.0000 H   0  0  0  0  0  0  0  0  0  0  0  0
    2.8676    1.8060    0.0000 H   0  0  0  0  0  0  0  0  0  0  0  0
    2.1702    1.5171    0.0000 H   0  0  0  0  0  0  0  0  0  0  0  0
    4.7242   -1.0369    0.0000 H   0  0  0  0  0  0  0  0  0  0  0  0
    5.0131   -0.3395    0.0000 H   0  0  0  0  0  0  0  0  0  0  0  0
    1.6900    1.0369    0.0000 H   0  0  0  0  0  0  0  0  0  0  0  0
    1.4011    0.3395    0.0000 H   0  0  0  0  0  0  0  0  0  0  0  0
    2.1702   -1.5171    0.0000 H   0  0  0  0  0  0  0  0  0  0  0  0
    2.8676   -1.8060    0.0000 H   0  0  0  0  0  0  0  0  0  0  0  0
  1  4  1  0  0  0  0
  1  5  1  0  0  0  0
  2  6  1  0  0  0  0
  2  8  1  0  0  0  0
  3  7  1  0  0  0  0
  3  8  1  0  0  0  0
  4  6  1  0  0  0  0
  4  9  1  0  0  0  0
  4 10  1  0  0  0  0
  5  7  1  0  0  0  0
  5 11  1  0  0  0  0
  5 12  1  0  0  0  0
  6 13  1  0  0  0  0
  6 14  1  0  0  0  0
  7 15  1  0  0  0  0
  7 16  1  0  0  0  0
  8 17  1  0  0  0  0
  8 18  1  0  0  0  0
M  END
> <PUBCHEM_COMPOUND_CID>
15687

> <PUBCHEM_COMPOUND_CANONICALIZED>
1

> <PUBCHEM_CACTVS_COMPLEXITY>
49.6

> <PUBCHEM_CACTVS_HBOND_ACCEPTOR>
3

> <PUBCHEM_CACTVS_HBOND_DONOR>
0

> <PUBCHEM_CACTVS_ROTATABLE_BOND>
0

> <PUBCHEM_CACTVS_SUBSKEYS>
AAADccBgMAAAAAAAAAAAAAAAAAAAAAAAAAAAAAAAAAASAAAAAAAAGgAAAAAAAACggAMACAAABAAAAAAAAAAAAAAAAAAAAAAAAAARAAAAAAAiAAAAAAAGAAAAAAAAAAAAAAAAAAAAAAAAAAAAAAAAAAAAAA==

> <PUBCHEM_IUPAC_OPENEYE_NAME>
1,3,6-trioxocane

> <PUBCHEM_IUPAC_CAS_NAME>
1,3,6-trioxocane

> <PUBCHEM_IUPAC_NAME_MARKUP>
1,3,6-trioxocane

> <PUBCHEM_IUPAC_NAME>
1,3,6-trioxocane

> <PUBCHEM_IUPAC_SYSTEMATIC_NAME>
1,3,6-trioxocane

> <PUBCHEM_IUPAC_TRADITIONAL_NAME>
1,3,6-trioxocane

> <PUBCHEM_IUPAC_INCHI>
InChI=1S/C5H10O3/c1-3-7-5-8-4-2-6-1/h1-5H2

> <PUBCHEM_IUPAC_INCHIKEY>
AUAGGMPIKOZAJZ-UHFFFAOYSA-N

> <PUBCHEM_XLOGP3>
-0.5

> <PUBCHEM_EXACT_MASS>
118.062994177

> <PUBCHEM_MOLECULAR_FORMULA>
C5H10O3

> <PUBCHEM_MOLECULAR_WEIGHT>
118.13

> <PUBCHEM_SMILES>
C1COCOCCO1

> <PUBCHEM_CONNECTIVITY_SMILES>
C1COCOCCO1

> <PUBCHEM_CACTVS_TPSA>
27.7

> <PUBCHEM_MONOISOTOPIC_WEIGHT>
118.062994177

> <PUBCHEM_TOTAL_CHARGE>
0

> <PUBCHEM_HEAVY_ATOM_COUNT>
8

> <PUBCHEM_ATOM_DEF_STEREO_COUNT>
0

> <PUBCHEM_ATOM_UDEF_STEREO_COUNT>
0

> <PUBCHEM_BOND_DEF_STEREO_COUNT>
0

> <PUBCHEM_BOND_UDEF_STEREO_COUNT>
0

> <PUBCHEM_ISOTOPIC_ATOM_COUNT>
0

> <PUBCHEM_COMPONENT_COUNT>
1

> <PUBCHEM_CACTVS_TAUTO_COUNT>
-1

> <PUBCHEM_COORDINATE_TYPE>
1
5
255

$$$$
