15715879
  -OEChem-05122610022D

 68 67  0     0  0  0  0  0  0999 V2000
    4.2690   -3.7500    0.0000 O   0  0  0  0  0  0  0  0  0  0  0  0
    2.5369   -2.7500    0.0000 O   0  0  0  0  0  0  0  0  0  0  0  0
    3.4030   -2.2500    0.0000 N   0  0  0  0  0  0  0  0  0  0  0  0
    9.4651   -2.7500    0.0000 C   0  0  0  0  0  0  0  0  0  0  0  0
   10.3312   -2.2500    0.0000 C   0  0  0  0  0  0  0  0  0  0  0  0
    8.5991   -2.2500    0.0000 C   0  0  0  0  0  0  0  0  0  0  0  0
   11.1972   -2.7500    0.0000 C   0  0  0  0  0  0  0  0  0  0  0  0
    7.7331   -2.7500    0.0000 C   0  0  0  0  0  0  0  0  0  0  0  0
   12.0632   -2.2500    0.0000 C   0  0  0  0  0  0  0  0  0  0  0  0
    6.8671   -2.2500    0.0000 C   0  0  0  0  0  0  0  0  0  0  0  0
   12.9292   -2.7500    0.0000 C   0  0  0  0  0  0  0  0  0  0  0  0
   17.2594    0.7500    0.0000 C   0  0  0  0  0  0  0  0  0  0  0  0
   16.3933    0.2500    0.0000 C   0  0  0  0  0  0  0  0  0  0  0  0
    6.0010   -2.7500    0.0000 C   0  0  0  0  0  0  0  0  0  0  0  0
   13.7953   -2.2500    0.0000 C   0  0  0  0  0  0  0  0  0  0  0  0
   16.3933   -0.7500    0.0000 C   0  0  0  0  0  0  0  0  0  0  0  0
   17.2594    1.7500    0.0000 C   0  0  0  0  0  0  0  0  0  0  0  0
   15.5273   -1.2500    0.0000 C   0  0  0  0  0  0  0  0  0  0  0  0
   18.1254    2.2500    0.0000 C   0  0  0  0  0  0  0  0  0  0  0  0
   14.6613   -2.7500    0.0000 C   0  0  0  0  0  0  0  0  0  0  0  0
    5.1350   -2.2500    0.0000 C   0  0  0  0  0  0  0  0  0  0  0  0
   15.5273   -2.2500    0.0000 C   0  0  0  0  0  0  0  0  0  0  0  0
   18.1254    3.2500    0.0000 C   0  0  0  0  0  0  0  0  0  0  0  0
   18.9914    3.7500    0.0000 C   0  0  0  0  0  0  0  0  0  0  0  0
    4.2690   -2.7500    0.0000 C   0  0  0  0  0  0  0  0  0  0  0  0
    9.0666   -3.2250    0.0000 H   0  0  0  0  0  0  0  0  0  0  0  0
    9.8637   -3.2250    0.0000 H   0  0  0  0  0  0  0  0  0  0  0  0
   10.7297   -1.7750    0.0000 H   0  0  0  0  0  0  0  0  0  0  0  0
    9.9326   -1.7750    0.0000 H   0  0  0  0  0  0  0  0  0  0  0  0
    8.9976   -1.7750    0.0000 H   0  0  0  0  0  0  0  0  0  0  0  0
    8.2006   -1.7750    0.0000 H   0  0  0  0  0  0  0  0  0  0  0  0
   10.7987   -3.2250    0.0000 H   0  0  0  0  0  0  0  0  0  0  0  0
   11.5957   -3.2250    0.0000 H   0  0  0  0  0  0  0  0  0  0  0  0
    7.3346   -3.2250    0.0000 H   0  0  0  0  0  0  0  0  0  0  0  0
    8.1316   -3.2250    0.0000 H   0  0  0  0  0  0  0  0  0  0  0  0
   12.4617   -1.7750    0.0000 H   0  0  0  0  0  0  0  0  0  0  0  0
   11.6647   -1.7750    0.0000 H   0  0  0  0  0  0  0  0  0  0  0  0
    7.2656   -1.7750    0.0000 H   0  0  0  0  0  0  0  0  0  0  0  0
    6.4685   -1.7750    0.0000 H   0  0  0  0  0  0  0  0  0  0  0  0
   12.5307   -3.2250    0.0000 H   0  0  0  0  0  0  0  0  0  0  0  0
   13.3278   -3.2250    0.0000 H   0  0  0  0  0  0  0  0  0  0  0  0
   17.4714    0.1674    0.0000 H   0  0  0  0  0  0  0  0  0  0  0  0
   17.8699    0.8577    0.0000 H   0  0  0  0  0  0  0  0  0  0  0  0
   16.1813    0.8326    0.0000 H   0  0  0  0  0  0  0  0  0  0  0  0
   15.7828    0.1423    0.0000 H   0  0  0  0  0  0  0  0  0  0  0  0
    5.6025   -3.2250    0.0000 H   0  0  0  0  0  0  0  0  0  0  0  0
    6.3996   -3.2250    0.0000 H   0  0  0  0  0  0  0  0  0  0  0  0
   14.1938   -1.7750    0.0000 H   0  0  0  0  0  0  0  0  0  0  0  0
   13.3967   -1.7750    0.0000 H   0  0  0  0  0  0  0  0  0  0  0  0
   17.0473    2.3326    0.0000 H   0  0  0  0  0  0  0  0  0  0  0  0
   16.6488    1.6423    0.0000 H   0  0  0  0  0  0  0  0  0  0  0  0
   16.6054   -1.3326    0.0000 H   0  0  0  0  0  0  0  0  0  0  0  0
   17.0039   -0.6423    0.0000 H   0  0  0  0  0  0  0  0  0  0  0  0
   15.3153   -0.6674    0.0000 H   0  0  0  0  0  0  0  0  0  0  0  0
   14.9167   -1.3577    0.0000 H   0  0  0  0  0  0  0  0  0  0  0  0
   18.3374    1.6674    0.0000 H   0  0  0  0  0  0  0  0  0  0  0  0
   18.7360    2.3577    0.0000 H   0  0  0  0  0  0  0  0  0  0  0  0
   14.6613   -3.3700    0.0000 H   0  0  0  0  0  0  0  0  0  0  0  0
    5.5335   -1.7750    0.0000 H   0  0  0  0  0  0  0  0  0  0  0  0
    4.7365   -1.7750    0.0000 H   0  0  0  0  0  0  0  0  0  0  0  0
   16.0643   -2.5600    0.0000 H   0  0  0  0  0  0  0  0  0  0  0  0
   17.9133    3.8326    0.0000 H   0  0  0  0  0  0  0  0  0  0  0  0
   17.5148    3.1423    0.0000 H   0  0  0  0  0  0  0  0  0  0  0  0
   19.3014    3.2131    0.0000 H   0  0  0  0  0  0  0  0  0  0  0  0
   19.5284    4.0600    0.0000 H   0  0  0  0  0  0  0  0  0  0  0  0
   18.6814    4.2869    0.0000 H   0  0  0  0  0  0  0  0  0  0  0  0
    3.4030   -1.6300    0.0000 H   0  0  0  0  0  0  0  0  0  0  0  0
    2.0000   -2.4400    0.0000 H   0  0  0  0  0  0  0  0  0  0  0  0
  1 25  2  0  0  0  0
  2  3  1  0  0  0  0
  2 68  1  0  0  0  0
  3 25  1  0  0  0  0
  3 67  1  0  0  0  0
  4  5  1  0  0  0  0
  4  6  1  0  0  0  0
  4 26  1  0  0  0  0
  4 27  1  0  0  0  0
  5  7  1  0  0  0  0
  5 28  1  0  0  0  0
  5 29  1  0  0  0  0
  6  8  1  0  0  0  0
  6 30  1  0  0  0  0
  6 31  1  0  0  0  0
  7  9  1  0  0  0  0
  7 32  1  0  0  0  0
  7 33  1  0  0  0  0
  8 10  1  0  0  0  0
  8 34  1  0  0  0  0
  8 35  1  0  0  0  0
  9 11  1  0  0  0  0
  9 36  1  0  0  0  0
  9 37  1  0  0  0  0
 10 14  1  0  0  0  0
 10 38  1  0  0  0  0
 10 39  1  0  0  0  0
 11 15  1  0  0  0  0
 11 40  1  0  0  0  0
 11 41  1  0  0  0  0
 12 13  1  0  0  0  0
 12 17  1  0  0  0  0
 12 42  1  0  0  0  0
 12 43  1  0  0  0  0
 13 16  1  0  0  0  0
 13 44  1  0  0  0  0
 13 45  1  0  0  0  0
 14 21  1  0  0  0  0
 14 46  1  0  0  0  0
 14 47  1  0  0  0  0
 15 20  1  0  0  0  0
 15 48  1  0  0  0  0
 15 49  1  0  0  0  0
 16 18  1  0  0  0  0
 16 52  1  0  0  0  0
 16 53  1  0  0  0  0
 17 19  1  0  0  0  0
 17 50  1  0  0  0  0
 17 51  1  0  0  0  0
 18 22  1  0  0  0  0
 18 54  1  0  0  0  0
 18 55  1  0  0  0  0
 19 23  1  0  0  0  0
 19 56  1  0  0  0  0
 19 57  1  0  0  0  0
 20 22  2  0  0  0  0
 20 58  1  0  0  0  0
 21 25  1  0  0  0  0
 21 59  1  0  0  0  0
 21 60  1  0  0  0  0
 22 61  1  0  0  0  0
 23 24  1  0  0  0  0
 23 62  1  0  0  0  0
 23 63  1  0  0  0  0
 24 64  1  0  0  0  0
 24 65  1  0  0  0  0
 24 66  1  0  0  0  0
M  END
> <PUBCHEM_COMPOUND_CID>
15715879

> <PUBCHEM_COMPOUND_CANONICALIZED>
1

> <PUBCHEM_CACTVS_COMPLEXITY>
302

> <PUBCHEM_CACTVS_HBOND_ACCEPTOR>
2

> <PUBCHEM_CACTVS_HBOND_DONOR>
2

> <PUBCHEM_CACTVS_ROTATABLE_BOND>
19

> <PUBCHEM_CACTVS_SUBSKEYS>
AAADcfB6MAAAAAAAAAAAAAAAAAAAAAAAAAAAAAAAAAAAAAAAAAAAHgAUCAAACACBgAACAABQAACIACFSEAAAAAAgAAAoCAEAAAgAABIAgQAAAAAAkAAIAAMYiICAAAAAAAAAAAAAAAAAAAAAAAAAAAAAAA==

> <PUBCHEM_IUPAC_OPENEYE_NAME>
(Z)-docos-13-enehydroxamic acid

> <PUBCHEM_IUPAC_CAS_NAME>
(Z)-N-hydroxy-13-docosenamide

> <PUBCHEM_IUPAC_NAME_MARKUP>
(<I>Z</I>)-<I>N</I>-hydroxydocos-13-enamide

> <PUBCHEM_IUPAC_NAME>
(Z)-N-hydroxydocos-13-enamide

> <PUBCHEM_IUPAC_SYSTEMATIC_NAME>
(Z)-N-oxidanyldocos-13-enamide

> <PUBCHEM_IUPAC_TRADITIONAL_NAME>
(Z)-docos-13-enehydroxamic acid

> <PUBCHEM_IUPAC_INCHI>
InChI=1S/C22H43NO2/c1-2-3-4-5-6-7-8-9-10-11-12-13-14-15-16-17-18-19-20-21-22(24)23-25/h9-10,25H,2-8,11-21H2,1H3,(H,23,24)/b10-9-

> <PUBCHEM_IUPAC_INCHIKEY>
HBYLLBDNAKCYAI-KTKRTIGZSA-N

> <PUBCHEM_XLOGP3_AA>
8.7

> <PUBCHEM_EXACT_MASS>
353.329379614

> <PUBCHEM_MOLECULAR_FORMULA>
C22H43NO2

> <PUBCHEM_MOLECULAR_WEIGHT>
353.6

> <PUBCHEM_SMILES>
CCCCCCCC/C=C\CCCCCCCCCCCC(=O)NO

> <PUBCHEM_CONNECTIVITY_SMILES>
CCCCCCCCC=CCCCCCCCCCCCC(=O)NO

> <PUBCHEM_CACTVS_TPSA>
49.3

> <PUBCHEM_MONOISOTOPIC_WEIGHT>
353.329379614

> <PUBCHEM_TOTAL_CHARGE>
0

> <PUBCHEM_HEAVY_ATOM_COUNT>
25

> <PUBCHEM_ATOM_DEF_STEREO_COUNT>
0

> <PUBCHEM_ATOM_UDEF_STEREO_COUNT>
0

> <PUBCHEM_BOND_DEF_STEREO_COUNT>
1

> <PUBCHEM_BOND_UDEF_STEREO_COUNT>
0

> <PUBCHEM_ISOTOPIC_ATOM_COUNT>
0

> <PUBCHEM_COMPONENT_COUNT>
1

> <PUBCHEM_CACTVS_TAUTO_COUNT>
-1

> <PUBCHEM_COORDINATE_TYPE>
1
5
255

$$$$
