157539336
  -OEChem-05122608472D

 62 64  0     0  0  0  0  0  0999 V2000
    6.4879   -3.4741    0.0000 O   0  0  0  0  0  0  0  0  0  0  0  0
    3.7899   -1.7330    0.0000 O   0  0  0  0  0  0  0  0  0  0  0  0
    6.3217    1.1246    0.0000 O   0  0  0  0  0  0  0  0  0  0  0  0
    3.6310    3.4741    0.0000 O   0  0  0  0  0  0  0  0  0  0  0  0
    8.2199   -3.4741    0.0000 O   0  0  0  0  0  0  0  0  0  0  0  0
    2.0579   -1.7330    0.0000 O   0  0  0  0  0  0  0  0  0  0  0  0
    8.1072    1.6836    0.0000 O   0  0  0  0  0  0  0  0  0  0  0  0
    2.0000    3.1497    0.0000 O   0  0  0  0  0  0  0  0  0  0  0  0
    5.6219   -1.9741    0.0000 C   0  0  0  0  0  0  0  0  0  0  0  0
    4.8557    2.2494    0.0000 C   0  0  0  0  0  0  0  0  0  0  0  0
    5.6219   -2.9741    0.0000 C   0  0  0  0  0  0  0  0  0  0  0  0
    4.7558   -1.4741    0.0000 C   0  0  0  0  0  0  0  0  0  0  0  0
    5.8217    1.9906    0.0000 C   0  0  0  0  0  0  0  0  0  0  0  0
    4.5969    3.2153    0.0000 C   0  0  0  0  0  0  0  0  0  0  0  0
    6.5282   -2.3968    0.0000 C   0  0  0  0  0  0  0  0  0  0  0  0
    5.8807   -1.0082    0.0000 C   0  0  0  0  0  0  0  0  0  0  0  0
    4.8558    1.2494    0.0000 C   0  0  0  0  0  0  0  0  0  0  0  0
    3.8557    2.2494    0.0000 C   0  0  0  0  0  0  0  0  0  0  0  0
    7.3539   -2.9741    0.0000 C   0  0  0  0  0  0  0  0  0  0  0  0
    2.9239   -1.2330    0.0000 C   0  0  0  0  0  0  0  0  0  0  0  0
    7.3539    1.0259    0.0000 C   0  0  0  0  0  0  0  0  0  0  0  0
    2.9239    2.7670    0.0000 C   0  0  0  0  0  0  0  0  0  0  0  0
    7.3539   -1.9741    0.0000 C   0  0  0  0  0  0  0  0  0  0  0  0
    2.9239   -0.2330    0.0000 C   0  0  0  0  0  0  0  0  0  0  0  0
    7.3539    0.0259    0.0000 C   0  0  0  0  0  0  0  0  0  0  0  0
    2.9239    1.7670    0.0000 C   0  0  0  0  0  0  0  0  0  0  0  0
    8.2199   -1.4741    0.0000 C   0  0  0  0  0  0  0  0  0  0  0  0
    8.2199   -0.4741    0.0000 C   0  0  0  0  0  0  0  0  0  0  0  0
    3.7996    0.2637    0.0000 C   0  0  0  0  0  0  0  0  0  0  0  0
    3.7996    1.2704    0.0000 C   0  0  0  0  0  0  0  0  0  0  0  0
    6.4879   -1.4741    0.0000 C   0  0  0  0  0  0  0  0  0  0  0  0
    6.4879   -0.4741    0.0000 C   0  0  0  0  0  0  0  0  0  0  0  0
    2.0579    0.2670    0.0000 C   0  0  0  0  0  0  0  0  0  0  0  0
    2.0579    1.2670    0.0000 C   0  0  0  0  0  0  0  0  0  0  0  0
    5.0113   -2.8665    0.0000 H   0  0  0  0  0  0  0  0  0  0  0  0
    5.4098   -3.5568    0.0000 H   0  0  0  0  0  0  0  0  0  0  0  0
    5.1942   -1.0357    0.0000 H   0  0  0  0  0  0  0  0  0  0  0  0
    4.4458   -0.9372    0.0000 H   0  0  0  0  0  0  0  0  0  0  0  0
    6.4205    2.1511    0.0000 H   0  0  0  0  0  0  0  0  0  0  0  0
    5.8217    2.6106    0.0000 H   0  0  0  0  0  0  0  0  0  0  0  0
    5.2146    3.2694    0.0000 H   0  0  0  0  0  0  0  0  0  0  0  0
    4.6510    3.8330    0.0000 H   0  0  0  0  0  0  0  0  0  0  0  0
    6.2661   -2.9587    0.0000 H   0  0  0  0  0  0  0  0  0  0  0  0
    7.0901   -2.6588    0.0000 H   0  0  0  0  0  0  0  0  0  0  0  0
    6.7902   -1.8349    0.0000 H   0  0  0  0  0  0  0  0  0  0  0  0
    6.4796   -1.1687    0.0000 H   0  0  0  0  0  0  0  0  0  0  0  0
    6.0411   -0.4093    0.0000 H   0  0  0  0  0  0  0  0  0  0  0  0
    5.2818   -0.8478    0.0000 H   0  0  0  0  0  0  0  0  0  0  0  0
    4.2358    1.2494    0.0000 H   0  0  0  0  0  0  0  0  0  0  0  0
    4.8558    0.6294    0.0000 H   0  0  0  0  0  0  0  0  0  0  0  0
    5.4758    1.2494    0.0000 H   0  0  0  0  0  0  0  0  0  0  0  0
    3.8558    2.8694    0.0000 H   0  0  0  0  0  0  0  0  0  0  0  0
    3.2357    2.2495    0.0000 H   0  0  0  0  0  0  0  0  0  0  0  0
    3.8557    1.6294    0.0000 H   0  0  0  0  0  0  0  0  0  0  0  0
    8.7569   -1.7841    0.0000 H   0  0  0  0  0  0  0  0  0  0  0  0
    8.7569   -0.1641    0.0000 H   0  0  0  0  0  0  0  0  0  0  0  0
    4.3353   -0.0484    0.0000 H   0  0  0  0  0  0  0  0  0  0  0  0
    4.3353    1.5825    0.0000 H   0  0  0  0  0  0  0  0  0  0  0  0
    5.9510   -1.7841    0.0000 H   0  0  0  0  0  0  0  0  0  0  0  0
    5.9510   -0.1641    0.0000 H   0  0  0  0  0  0  0  0  0  0  0  0
    1.5209   -0.0430    0.0000 H   0  0  0  0  0  0  0  0  0  0  0  0
    1.5209    1.5770    0.0000 H   0  0  0  0  0  0  0  0  0  0  0  0
  1 11  1  0  0  0  0
  1 19  1  0  0  0  0
  2 12  1  0  0  0  0
  2 20  1  0  0  0  0
  3 13  1  0  0  0  0
  3 21  1  0  0  0  0
  4 14  1  0  0  0  0
  4 22  1  0  0  0  0
  5 19  2  0  0  0  0
  6 20  2  0  0  0  0
  7 21  2  0  0  0  0
  8 22  2  0  0  0  0
  9 11  1  0  0  0  0
  9 12  1  0  0  0  0
  9 15  1  0  0  0  0
  9 16  1  0  0  0  0
 10 13  1  0  0  0  0
 10 14  1  0  0  0  0
 10 17  1  0  0  0  0
 10 18  1  0  0  0  0
 11 35  1  0  0  0  0
 11 36  1  0  0  0  0
 12 37  1  0  0  0  0
 12 38  1  0  0  0  0
 13 39  1  0  0  0  0
 13 40  1  0  0  0  0
 14 41  1  0  0  0  0
 14 42  1  0  0  0  0
 15 43  1  0  0  0  0
 15 44  1  0  0  0  0
 15 45  1  0  0  0  0
 16 46  1  0  0  0  0
 16 47  1  0  0  0  0
 16 48  1  0  0  0  0
 17 49  1  0  0  0  0
 17 50  1  0  0  0  0
 17 51  1  0  0  0  0
 18 52  1  0  0  0  0
 18 53  1  0  0  0  0
 18 54  1  0  0  0  0
 19 23  1  0  0  0  0
 20 24  1  0  0  0  0
 21 25  1  0  0  0  0
 22 26  1  0  0  0  0
 23 27  2  0  0  0  0
 23 31  1  0  0  0  0
 24 29  2  0  0  0  0
 24 33  1  0  0  0  0
 25 28  2  0  0  0  0
 25 32  1  0  0  0  0
 26 30  2  0  0  0  0
 26 34  1  0  0  0  0
 27 28  1  0  0  0  0
 27 55  1  0  0  0  0
 28 56  1  0  0  0  0
 29 30  1  0  0  0  0
 29 57  1  0  0  0  0
 30 58  1  0  0  0  0
 31 32  2  0  0  0  0
 31 59  1  0  0  0  0
 32 60  1  0  0  0  0
 33 34  2  0  0  0  0
 33 61  1  0  0  0  0
 34 62  1  0  0  0  0
M  END
> <PUBCHEM_COMPOUND_CID>
157539336

> <PUBCHEM_COMPOUND_CANONICALIZED>
1

> <PUBCHEM_CACTVS_COMPLEXITY>
631

> <PUBCHEM_CACTVS_HBOND_ACCEPTOR>
8

> <PUBCHEM_CACTVS_HBOND_DONOR>
0

> <PUBCHEM_CACTVS_ROTATABLE_BOND>
0

> <PUBCHEM_CACTVS_SUBSKEYS>
AAADceB4PAAAAAAAAAAAAAAAAAAAAAAAAAAwYAAAAAAAAAABQAAAGgAAAAAADgCgmAIyCIAABACIAiDSCAACAAAkAAAIiAEACMgIJjKANRiCMQAlwAEIqYeIyDCOQAAAAAAAAACAAAAAAAAAAAAAAAAAAA==

> <PUBCHEM_IUPAC_OPENEYE_NAME>
5,5,16,16-tetramethyl-3,7,14,18-tetraoxatricyclo[18.2.2.29,12]hexacosa-1(23),9,11,20(24),21,25-hexaene-2,8,13,19-tetrone

> <PUBCHEM_IUPAC_CAS_NAME>
5,5,16,16-tetramethyl-3,7,14,18-tetraoxatricyclo[18.2.2.29,12]hexacosa-1(23),9,11,20(24),21,25-hexaene-2,8,13,19-tetrone

> <PUBCHEM_IUPAC_NAME_MARKUP>
5,5,16,16-tetramethyl-3,7,14,18-tetraoxatricyclo[18.2.2.2<SUP>9,12</SUP>]hexacosa-1(23),9,11,20(24),21,25-hexaene-2,8,13,19-tetrone

> <PUBCHEM_IUPAC_NAME>
5,5,16,16-tetramethyl-3,7,14,18-tetraoxatricyclo[18.2.2.29,12]hexacosa-1(23),9,11,20(24),21,25-hexaene-2,8,13,19-tetrone

> <PUBCHEM_IUPAC_SYSTEMATIC_NAME>
5,5,16,16-tetramethyl-3,7,14,18-tetraoxatricyclo[18.2.2.29,12]hexacosa-1(23),9,11,20(24),21,25-hexaene-2,8,13,19-tetrone

> <PUBCHEM_IUPAC_TRADITIONAL_NAME>
5,5,16,16-tetramethyl-3,7,14,18-tetraoxatricyclo[18.2.2.29,12]hexacosa-1(23),9,11,20(24),21,25-hexaene-2,8,13,19-diquinone

> <PUBCHEM_IUPAC_INCHI>
InChI=1S/C26H28O8/c1-25(2)13-31-21(27)17-5-9-19(10-6-17)23(29)33-15-26(3,4)16-34-24(30)20-11-7-18(8-12-20)22(28)32-14-25/h5-12H,13-16H2,1-4H3

> <PUBCHEM_IUPAC_INCHIKEY>
CCSXEFHLVWOFER-UHFFFAOYSA-N

> <PUBCHEM_XLOGP3_AA>
5.2

> <PUBCHEM_EXACT_MASS>
468.17841785

> <PUBCHEM_MOLECULAR_FORMULA>
C26H28O8

> <PUBCHEM_MOLECULAR_WEIGHT>
468.5

> <PUBCHEM_SMILES>
CC1(COC(=O)C2=CC=C(C=C2)C(=O)OCC(COC(=O)C3=CC=C(C=C3)C(=O)OC1)(C)C)C

> <PUBCHEM_CONNECTIVITY_SMILES>
CC1(COC(=O)C2=CC=C(C=C2)C(=O)OCC(COC(=O)C3=CC=C(C=C3)C(=O)OC1)(C)C)C

> <PUBCHEM_CACTVS_TPSA>
105

> <PUBCHEM_MONOISOTOPIC_WEIGHT>
468.17841785

> <PUBCHEM_TOTAL_CHARGE>
0

> <PUBCHEM_HEAVY_ATOM_COUNT>
34

> <PUBCHEM_ATOM_DEF_STEREO_COUNT>
0

> <PUBCHEM_ATOM_UDEF_STEREO_COUNT>
0

> <PUBCHEM_BOND_DEF_STEREO_COUNT>
0

> <PUBCHEM_BOND_UDEF_STEREO_COUNT>
0

> <PUBCHEM_ISOTOPIC_ATOM_COUNT>
0

> <PUBCHEM_COMPONENT_COUNT>
1

> <PUBCHEM_CACTVS_TAUTO_COUNT>
-1

> <PUBCHEM_COORDINATE_TYPE>
1
5
255

> <PUBCHEM_BONDANNOTATIONS>
23  27  8
23  31  8
24  29  8
24  33  8
25  28  8
25  32  8
26  30  8
26  34  8
27  28  8
29  30  8
31  32  8
33  34  8

$$$$
