157881
  -OEChem-05122608122D

 65 65  0     0  0  0  0  0  0999 V2000
    3.8660   -2.5000    0.0000 O   0  0  0  0  0  0  0  0  0  0  0  0
    5.5981   -2.5000    0.0000 O   0  0  0  0  0  0  0  0  0  0  0  0
    9.0622    5.5000    0.0000 O   0  0  0  0  0  0  0  0  0  0  0  0
    7.3301    5.5000    0.0000 O   0  0  0  0  0  0  0  0  0  0  0  0
    3.8660   -5.5000    0.0000 N   0  0  0  0  0  0  0  0  0  0  0  0
    4.7321   -5.0000    0.0000 C   0  0  0  0  0  0  0  0  0  0  0  0
    3.0000   -5.0000    0.0000 C   0  0  0  0  0  0  0  0  0  0  0  0
    4.7321   -4.0000    0.0000 C   0  0  0  0  0  0  0  0  0  0  0  0
    3.0000   -4.0000    0.0000 C   0  0  0  0  0  0  0  0  0  0  0  0
    3.8660   -3.5000    0.0000 C   0  0  0  0  0  0  0  0  0  0  0  0
    5.7321   -5.0000    0.0000 C   0  0  0  0  0  0  0  0  0  0  0  0
    5.2321   -5.8660    0.0000 C   0  0  0  0  0  0  0  0  0  0  0  0
    2.0000   -5.0000    0.0000 C   0  0  0  0  0  0  0  0  0  0  0  0
    2.5000   -5.8660    0.0000 C   0  0  0  0  0  0  0  0  0  0  0  0
    3.8660   -6.5000    0.0000 C   0  0  0  0  0  0  0  0  0  0  0  0
    4.7321   -2.0000    0.0000 C   0  0  0  0  0  0  0  0  0  0  0  0
    4.7321   -1.0000    0.0000 C   0  0  0  0  0  0  0  0  0  0  0  0
    5.5981   -0.5000    0.0000 C   0  0  0  0  0  0  0  0  0  0  0  0
    5.5981    0.5000    0.0000 C   0  0  0  0  0  0  0  0  0  0  0  0
    6.4641    1.0000    0.0000 C   0  0  0  0  0  0  0  0  0  0  0  0
    6.4641    2.0000    0.0000 C   0  0  0  0  0  0  0  0  0  0  0  0
    7.3301    2.5000    0.0000 C   0  0  0  0  0  0  0  0  0  0  0  0
    7.3301    3.5000    0.0000 C   0  0  0  0  0  0  0  0  0  0  0  0
    8.1962    4.0000    0.0000 C   0  0  0  0  0  0  0  0  0  0  0  0
    8.1962    5.0000    0.0000 C   0  0  0  0  0  0  0  0  0  0  0  0
    9.0622    6.5000    0.0000 C   0  0  0  0  0  0  0  0  0  0  0  0
    5.3426   -4.1077    0.0000 H   0  0  0  0  0  0  0  0  0  0  0  0
    4.9441   -3.4174    0.0000 H   0  0  0  0  0  0  0  0  0  0  0  0
    2.7880   -3.4174    0.0000 H   0  0  0  0  0  0  0  0  0  0  0  0
    2.3894   -4.1077    0.0000 H   0  0  0  0  0  0  0  0  0  0  0  0
    4.4030   -3.1900    0.0000 H   0  0  0  0  0  0  0  0  0  0  0  0
    5.7321   -5.6200    0.0000 H   0  0  0  0  0  0  0  0  0  0  0  0
    6.3521   -5.0000    0.0000 H   0  0  0  0  0  0  0  0  0  0  0  0
    5.7321   -4.3800    0.0000 H   0  0  0  0  0  0  0  0  0  0  0  0
    4.6951   -6.1760    0.0000 H   0  0  0  0  0  0  0  0  0  0  0  0
    5.5421   -6.4030    0.0000 H   0  0  0  0  0  0  0  0  0  0  0  0
    5.7690   -5.5560    0.0000 H   0  0  0  0  0  0  0  0  0  0  0  0
    2.0000   -4.3800    0.0000 H   0  0  0  0  0  0  0  0  0  0  0  0
    1.3800   -5.0000    0.0000 H   0  0  0  0  0  0  0  0  0  0  0  0
    2.0000   -5.6200    0.0000 H   0  0  0  0  0  0  0  0  0  0  0  0
    1.9631   -5.5560    0.0000 H   0  0  0  0  0  0  0  0  0  0  0  0
    2.1900   -6.4030    0.0000 H   0  0  0  0  0  0  0  0  0  0  0  0
    3.0369   -6.1760    0.0000 H   0  0  0  0  0  0  0  0  0  0  0  0
    3.2460   -6.5000    0.0000 H   0  0  0  0  0  0  0  0  0  0  0  0
    3.8660   -7.1200    0.0000 H   0  0  0  0  0  0  0  0  0  0  0  0
    4.4860   -6.5000    0.0000 H   0  0  0  0  0  0  0  0  0  0  0  0
    4.5200   -0.4174    0.0000 H   0  0  0  0  0  0  0  0  0  0  0  0
    4.1215   -1.1077    0.0000 H   0  0  0  0  0  0  0  0  0  0  0  0
    5.8101   -1.0826    0.0000 H   0  0  0  0  0  0  0  0  0  0  0  0
    6.2087   -0.3923    0.0000 H   0  0  0  0  0  0  0  0  0  0  0  0
    5.3860    1.0826    0.0000 H   0  0  0  0  0  0  0  0  0  0  0  0
    4.9875    0.3923    0.0000 H   0  0  0  0  0  0  0  0  0  0  0  0
    6.6762    0.4174    0.0000 H   0  0  0  0  0  0  0  0  0  0  0  0
    7.0747    1.1077    0.0000 H   0  0  0  0  0  0  0  0  0  0  0  0
    6.2521    2.5826    0.0000 H   0  0  0  0  0  0  0  0  0  0  0  0
    5.8535    1.8923    0.0000 H   0  0  0  0  0  0  0  0  0  0  0  0
    7.5422    1.9174    0.0000 H   0  0  0  0  0  0  0  0  0  0  0  0
    7.9407    2.6077    0.0000 H   0  0  0  0  0  0  0  0  0  0  0  0
    7.1181    4.0826    0.0000 H   0  0  0  0  0  0  0  0  0  0  0  0
    6.7196    3.3923    0.0000 H   0  0  0  0  0  0  0  0  0  0  0  0
    8.4082    3.4174    0.0000 H   0  0  0  0  0  0  0  0  0  0  0  0
    8.8067    4.1077    0.0000 H   0  0  0  0  0  0  0  0  0  0  0  0
    9.6822    6.5000    0.0000 H   0  0  0  0  0  0  0  0  0  0  0  0
    9.0622    7.1200    0.0000 H   0  0  0  0  0  0  0  0  0  0  0  0
    8.4422    6.5000    0.0000 H   0  0  0  0  0  0  0  0  0  0  0  0
  1 10  1  0  0  0  0
  1 16  1  0  0  0  0
  2 16  2  0  0  0  0
  3 25  1  0  0  0  0
  3 26  1  0  0  0  0
  4 25  2  0  0  0  0
  5  6  1  0  0  0  0
  5  7  1  0  0  0  0
  5 15  1  0  0  0  0
  6  8  1  0  0  0  0
  6 11  1  0  0  0  0
  6 12  1  0  0  0  0
  7  9  1  0  0  0  0
  7 13  1  0  0  0  0
  7 14  1  0  0  0  0
  8 10  1  0  0  0  0
  8 27  1  0  0  0  0
  8 28  1  0  0  0  0
  9 10  1  0  0  0  0
  9 29  1  0  0  0  0
  9 30  1  0  0  0  0
 10 31  1  0  0  0  0
 11 32  1  0  0  0  0
 11 33  1  0  0  0  0
 11 34  1  0  0  0  0
 12 35  1  0  0  0  0
 12 36  1  0  0  0  0
 12 37  1  0  0  0  0
 13 38  1  0  0  0  0
 13 39  1  0  0  0  0
 13 40  1  0  0  0  0
 14 41  1  0  0  0  0
 14 42  1  0  0  0  0
 14 43  1  0  0  0  0
 15 44  1  0  0  0  0
 15 45  1  0  0  0  0
 15 46  1  0  0  0  0
 16 17  1  0  0  0  0
 17 18  1  0  0  0  0
 17 47  1  0  0  0  0
 17 48  1  0  0  0  0
 18 19  1  0  0  0  0
 18 49  1  0  0  0  0
 18 50  1  0  0  0  0
 19 20  1  0  0  0  0
 19 51  1  0  0  0  0
 19 52  1  0  0  0  0
 20 21  1  0  0  0  0
 20 53  1  0  0  0  0
 20 54  1  0  0  0  0
 21 22  1  0  0  0  0
 21 55  1  0  0  0  0
 21 56  1  0  0  0  0
 22 23  1  0  0  0  0
 22 57  1  0  0  0  0
 22 58  1  0  0  0  0
 23 24  1  0  0  0  0
 23 59  1  0  0  0  0
 23 60  1  0  0  0  0
 24 25  1  0  0  0  0
 24 61  1  0  0  0  0
 24 62  1  0  0  0  0
 26 63  1  0  0  0  0
 26 64  1  0  0  0  0
 26 65  1  0  0  0  0
M  END
> <PUBCHEM_COMPOUND_CID>
157881

> <PUBCHEM_COMPOUND_CANONICALIZED>
1

> <PUBCHEM_CACTVS_COMPLEXITY>
441

> <PUBCHEM_CACTVS_HBOND_ACCEPTOR>
5

> <PUBCHEM_CACTVS_HBOND_DONOR>
0

> <PUBCHEM_CACTVS_ROTATABLE_BOND>
12

> <PUBCHEM_CACTVS_SUBSKEYS>
AAADcfB6OAAAAAAAAAAAAAAAAAAAAAAAAAAsAAAAAAAAAAAAAAAAHgAAAAAADJyhgAYCCAMABAAIAACQCAAAAAAAAAAAAAEIAAAAABIAgAAGAAAGAACAAAGYyOCMAAAAAAAAAAAAAAAAAAAAAAAAAAAAAA==

> <PUBCHEM_IUPAC_OPENEYE_NAME>
O1-methyl O10-(1,2,2,6,6-pentamethyl-4-piperidyl) decanedioate

> <PUBCHEM_IUPAC_CAS_NAME>
decanedioic acid O1-methyl ester O10-(1,2,2,6,6-pentamethyl-4-piperidinyl) ester

> <PUBCHEM_IUPAC_NAME_MARKUP>
1-<I>O</I>-methyl 10-<I>O</I>-(1,2,2,6,6-pentamethylpiperidin-4-yl) decanedioate

> <PUBCHEM_IUPAC_NAME>
1-O-methyl 10-O-(1,2,2,6,6-pentamethylpiperidin-4-yl) decanedioate

> <PUBCHEM_IUPAC_SYSTEMATIC_NAME>
O1-methyl O10-(1,2,2,6,6-pentamethylpiperidin-4-yl) decanedioate

> <PUBCHEM_IUPAC_TRADITIONAL_NAME>
sebacic acid O1-methyl ester O10-(1,2,2,6,6-pentamethyl-4-piperidyl) ester

> <PUBCHEM_IUPAC_INCHI>
InChI=1S/C21H39NO4/c1-20(2)15-17(16-21(3,4)22(20)5)26-19(24)14-12-10-8-7-9-11-13-18(23)25-6/h17H,7-16H2,1-6H3

> <PUBCHEM_IUPAC_INCHIKEY>
OTCWVYFQGYOYJO-UHFFFAOYSA-N

> <PUBCHEM_XLOGP3_AA>
4.6

> <PUBCHEM_EXACT_MASS>
369.28790873

> <PUBCHEM_MOLECULAR_FORMULA>
C21H39NO4

> <PUBCHEM_MOLECULAR_WEIGHT>
369.5

> <PUBCHEM_SMILES>
CC1(CC(CC(N1C)(C)C)OC(=O)CCCCCCCCC(=O)OC)C

> <PUBCHEM_CONNECTIVITY_SMILES>
CC1(CC(CC(N1C)(C)C)OC(=O)CCCCCCCCC(=O)OC)C

> <PUBCHEM_CACTVS_TPSA>
55.8

> <PUBCHEM_MONOISOTOPIC_WEIGHT>
369.28790873

> <PUBCHEM_TOTAL_CHARGE>
0

> <PUBCHEM_HEAVY_ATOM_COUNT>
26

> <PUBCHEM_ATOM_DEF_STEREO_COUNT>
0

> <PUBCHEM_ATOM_UDEF_STEREO_COUNT>
0

> <PUBCHEM_BOND_DEF_STEREO_COUNT>
0

> <PUBCHEM_BOND_UDEF_STEREO_COUNT>
0

> <PUBCHEM_ISOTOPIC_ATOM_COUNT>
0

> <PUBCHEM_COMPONENT_COUNT>
1

> <PUBCHEM_CACTVS_TAUTO_COUNT>
-1

> <PUBCHEM_COORDINATE_TYPE>
1
5
255

$$$$
