160606
  -OEChem-05122609012D

 42 41  0     0  0  0  0  0  0999 V2000
   10.2942   -0.7990    0.0000 F   0  0  0  0  0  0  0  0  0  0  0  0
    9.2942    0.9330    0.0000 F   0  0  0  0  0  0  0  0  0  0  0  0
    8.4282    0.4330    0.0000 F   0  0  0  0  0  0  0  0  0  0  0  0
    9.4282   -1.2990    0.0000 F   0  0  0  0  0  0  0  0  0  0  0  0
   10.1603    1.4330    0.0000 F   0  0  0  0  0  0  0  0  0  0  0  0
   11.1603   -0.2990    0.0000 F   0  0  0  0  0  0  0  0  0  0  0  0
    7.5622   -0.0670    0.0000 F   0  0  0  0  0  0  0  0  0  0  0  0
    8.5622   -1.7990    0.0000 F   0  0  0  0  0  0  0  0  0  0  0  0
   12.0263    0.2010    0.0000 F   0  0  0  0  0  0  0  0  0  0  0  0
   11.0263    1.9330    0.0000 F   0  0  0  0  0  0  0  0  0  0  0  0
    6.6962   -0.5670    0.0000 F   0  0  0  0  0  0  0  0  0  0  0  0
    7.6962   -2.2990    0.0000 F   0  0  0  0  0  0  0  0  0  0  0  0
   12.8923    0.7010    0.0000 F   0  0  0  0  0  0  0  0  0  0  0  0
   11.8923    2.4330    0.0000 F   0  0  0  0  0  0  0  0  0  0  0  0
   14.1244    2.5670    0.0000 F   0  0  0  0  0  0  0  0  0  0  0  0
   13.7583    1.2010    0.0000 F   0  0  0  0  0  0  0  0  0  0  0  0
   12.7583    2.9330    0.0000 F   0  0  0  0  0  0  0  0  0  0  0  0
    4.5981   -1.9330    0.0000 O   0  0  0  0  0  0  0  0  0  0  0  0
    3.7321   -0.4330    0.0000 O   0  0  0  0  0  0  0  0  0  0  0  0
    9.7942    0.0670    0.0000 C   0  0  0  0  0  0  0  0  0  0  0  0
    8.9282   -0.4330    0.0000 C   0  0  0  0  0  0  0  0  0  0  0  0
   10.6603    0.5670    0.0000 C   0  0  0  0  0  0  0  0  0  0  0  0
    8.0622   -0.9330    0.0000 C   0  0  0  0  0  0  0  0  0  0  0  0
   11.5263    1.0670    0.0000 C   0  0  0  0  0  0  0  0  0  0  0  0
    7.1962   -1.4330    0.0000 C   0  0  0  0  0  0  0  0  0  0  0  0
    6.3301   -1.9330    0.0000 C   0  0  0  0  0  0  0  0  0  0  0  0
   12.3923    1.5670    0.0000 C   0  0  0  0  0  0  0  0  0  0  0  0
    5.4641   -1.4330    0.0000 C   0  0  0  0  0  0  0  0  0  0  0  0
   13.2583    2.0670    0.0000 C   0  0  0  0  0  0  0  0  0  0  0  0
    3.7321   -1.4330    0.0000 C   0  0  0  0  0  0  0  0  0  0  0  0
    2.8660   -1.9330    0.0000 C   0  0  0  0  0  0  0  0  0  0  0  0
    2.0000   -1.4330    0.0000 C   0  0  0  0  0  0  0  0  0  0  0  0
    2.8660   -2.9330    0.0000 C   0  0  0  0  0  0  0  0  0  0  0  0
    5.9316   -2.4080    0.0000 H   0  0  0  0  0  0  0  0  0  0  0  0
    6.7287   -2.4080    0.0000 H   0  0  0  0  0  0  0  0  0  0  0  0
    5.8626   -0.9581    0.0000 H   0  0  0  0  0  0  0  0  0  0  0  0
    5.0656   -0.9581    0.0000 H   0  0  0  0  0  0  0  0  0  0  0  0
    2.3100   -0.8961    0.0000 H   0  0  0  0  0  0  0  0  0  0  0  0
    1.4631   -1.1230    0.0000 H   0  0  0  0  0  0  0  0  0  0  0  0
    1.6900   -1.9700    0.0000 H   0  0  0  0  0  0  0  0  0  0  0  0
    2.3291   -3.2430    0.0000 H   0  0  0  0  0  0  0  0  0  0  0  0
    3.4030   -3.2430    0.0000 H   0  0  0  0  0  0  0  0  0  0  0  0
  1 20  1  0  0  0  0
  2 20  1  0  0  0  0
  3 21  1  0  0  0  0
  4 21  1  0  0  0  0
  5 22  1  0  0  0  0
  6 22  1  0  0  0  0
  7 23  1  0  0  0  0
  8 23  1  0  0  0  0
  9 24  1  0  0  0  0
 10 24  1  0  0  0  0
 11 25  1  0  0  0  0
 12 25  1  0  0  0  0
 13 27  1  0  0  0  0
 14 27  1  0  0  0  0
 15 29  1  0  0  0  0
 16 29  1  0  0  0  0
 17 29  1  0  0  0  0
 18 28  1  0  0  0  0
 18 30  1  0  0  0  0
 19 30  2  0  0  0  0
 20 21  1  0  0  0  0
 20 22  1  0  0  0  0
 21 23  1  0  0  0  0
 22 24  1  0  0  0  0
 23 25  1  0  0  0  0
 24 27  1  0  0  0  0
 25 26  1  0  0  0  0
 26 28  1  0  0  0  0
 26 34  1  0  0  0  0
 26 35  1  0  0  0  0
 27 29  1  0  0  0  0
 28 36  1  0  0  0  0
 28 37  1  0  0  0  0
 30 31  1  0  0  0  0
 31 32  1  0  0  0  0
 31 33  2  0  0  0  0
 32 38  1  0  0  0  0
 32 39  1  0  0  0  0
 32 40  1  0  0  0  0
 33 41  1  0  0  0  0
 33 42  1  0  0  0  0
M  END
> <PUBCHEM_COMPOUND_CID>
160606

> <PUBCHEM_COMPOUND_CANONICALIZED>
1

> <PUBCHEM_CACTVS_COMPLEXITY>
749

> <PUBCHEM_CACTVS_HBOND_ACCEPTOR>
19

> <PUBCHEM_CACTVS_HBOND_DONOR>
0

> <PUBCHEM_CACTVS_ROTATABLE_BOND>
11

> <PUBCHEM_CACTVS_SUBSKEYS>
AAADccBwMcAAAAAAAAAAAAAAAAAAAAAAAAAAAAAAAAAAAAAAAAAAGwAAAAAADACggBICCAAABACIAgDSCAAAAAAAAAAAAAEAAEAABAIAIQACAAAEAAAAIIGAwKAAAAAAAAAAAAAAAAAAAAAAAAAAAAAAAA==

> <PUBCHEM_IUPAC_OPENEYE_NAME>
3,3,4,4,5,5,6,6,7,7,8,8,9,9,10,10,10-heptadecafluorodecyl 2-methylprop-2-enoate

> <PUBCHEM_IUPAC_CAS_NAME>
2-methyl-2-propenoic acid 3,3,4,4,5,5,6,6,7,7,8,8,9,9,10,10,10-heptadecafluorodecyl ester

> <PUBCHEM_IUPAC_NAME_MARKUP>
3,3,4,4,5,5,6,6,7,7,8,8,9,9,10,10,10-heptadecafluorodecyl 2-methylprop-2-enoate

> <PUBCHEM_IUPAC_NAME>
3,3,4,4,5,5,6,6,7,7,8,8,9,9,10,10,10-heptadecafluorodecyl 2-methylprop-2-enoate

> <PUBCHEM_IUPAC_SYSTEMATIC_NAME>
3,3,4,4,5,5,6,6,7,7,8,8,9,9,10,10,10-heptadecakis(fluoranyl)decyl 2-methylprop-2-enoate

> <PUBCHEM_IUPAC_TRADITIONAL_NAME>
2-methylacrylic acid 3,3,4,4,5,5,6,6,7,7,8,8,9,9,10,10,10-heptadecafluorodecyl ester

> <PUBCHEM_IUPAC_INCHI>
InChI=1S/C14H9F17O2/c1-5(2)6(32)33-4-3-7(15,16)8(17,18)9(19,20)10(21,22)11(23,24)12(25,26)13(27,28)14(29,30)31/h1,3-4H2,2H3

> <PUBCHEM_IUPAC_INCHIKEY>
HBZFBSFGXQBQTB-UHFFFAOYSA-N

> <PUBCHEM_XLOGP3_AA>
7.2

> <PUBCHEM_EXACT_MASS>
532.0331083

> <PUBCHEM_MOLECULAR_FORMULA>
C14H9F17O2

> <PUBCHEM_MOLECULAR_WEIGHT>
532.19

> <PUBCHEM_SMILES>
CC(=C)C(=O)OCCC(C(C(C(C(C(C(C(F)(F)F)(F)F)(F)F)(F)F)(F)F)(F)F)(F)F)(F)F

> <PUBCHEM_CONNECTIVITY_SMILES>
CC(=C)C(=O)OCCC(C(C(C(C(C(C(C(F)(F)F)(F)F)(F)F)(F)F)(F)F)(F)F)(F)F)(F)F

> <PUBCHEM_CACTVS_TPSA>
26.3

> <PUBCHEM_MONOISOTOPIC_WEIGHT>
532.0331083

> <PUBCHEM_TOTAL_CHARGE>
0

> <PUBCHEM_HEAVY_ATOM_COUNT>
33

> <PUBCHEM_ATOM_DEF_STEREO_COUNT>
0

> <PUBCHEM_ATOM_UDEF_STEREO_COUNT>
0

> <PUBCHEM_BOND_DEF_STEREO_COUNT>
0

> <PUBCHEM_BOND_UDEF_STEREO_COUNT>
0

> <PUBCHEM_ISOTOPIC_ATOM_COUNT>
0

> <PUBCHEM_COMPONENT_COUNT>
1

> <PUBCHEM_CACTVS_TAUTO_COUNT>
-1

> <PUBCHEM_COORDINATE_TYPE>
1
5
255

$$$$
