16205480
  -OEChem-05122608372D

 43 44  0     1  0  0  0  0  0999 V2000
    4.5981    1.2500    0.0000 P   0  0  3  0  0  0  0  0  0  0  0  0
    4.0981    2.1160    0.0000 O   0  0  0  0  0  0  0  0  0  0  0  0
    5.0981    0.3840    0.0000 O   0  0  0  0  0  0  0  0  0  0  0  0
    2.8660    1.2500    0.0000 O   0  0  0  0  0  0  0  0  0  0  0  0
    3.7321   -0.2500    0.0000 C   0  0  0  0  0  0  0  0  0  0  0  0
    3.7321    0.7500    0.0000 C   0  0  0  0  0  0  0  0  0  0  0  0
    4.5981   -0.7500    0.0000 C   0  0  0  0  0  0  0  0  0  0  0  0
    2.8660   -0.7500    0.0000 C   0  0  0  0  0  0  0  0  0  0  0  0
    5.4641    1.7500    0.0000 C   0  0  0  0  0  0  0  0  0  0  0  0
    3.7321   -2.2500    0.0000 C   0  0  0  0  0  0  0  0  0  0  0  0
    4.5981   -1.7500    0.0000 C   0  0  0  0  0  0  0  0  0  0  0  0
    2.8660   -1.7500    0.0000 C   0  0  0  0  0  0  0  0  0  0  0  0
    5.4641   -0.2500    0.0000 C   0  0  0  0  0  0  0  0  0  0  0  0
    2.0000   -0.2500    0.0000 C   0  0  0  0  0  0  0  0  0  0  0  0
    5.4641    2.7500    0.0000 C   0  0  0  0  0  0  0  0  0  0  0  0
    6.3301    1.2500    0.0000 C   0  0  0  0  0  0  0  0  0  0  0  0
    3.7321   -3.2500    0.0000 C   0  0  0  0  0  0  0  0  0  0  0  0
    3.0981    2.1160    0.0000 C   0  0  0  0  0  0  0  0  0  0  0  0
    6.3301    3.2500    0.0000 C   0  0  0  0  0  0  0  0  0  0  0  0
    7.1962    1.7500    0.0000 C   0  0  0  0  0  0  0  0  0  0  0  0
    7.1962    2.7500    0.0000 C   0  0  0  0  0  0  0  0  0  0  0  0
    2.5981    2.9821    0.0000 C   0  0  0  0  0  0  0  0  0  0  0  0
    5.1350   -2.0600    0.0000 H   0  0  0  0  0  0  0  0  0  0  0  0
    2.3291   -2.0600    0.0000 H   0  0  0  0  0  0  0  0  0  0  0  0
    5.7741   -0.7869    0.0000 H   0  0  0  0  0  0  0  0  0  0  0  0
    6.0010    0.0600    0.0000 H   0  0  0  0  0  0  0  0  0  0  0  0
    5.1541    0.2869    0.0000 H   0  0  0  0  0  0  0  0  0  0  0  0
    2.3100    0.2869    0.0000 H   0  0  0  0  0  0  0  0  0  0  0  0
    1.4631    0.0600    0.0000 H   0  0  0  0  0  0  0  0  0  0  0  0
    1.6900   -0.7869    0.0000 H   0  0  0  0  0  0  0  0  0  0  0  0
    4.9272    3.0600    0.0000 H   0  0  0  0  0  0  0  0  0  0  0  0
    6.3301    0.6300    0.0000 H   0  0  0  0  0  0  0  0  0  0  0  0
    3.1121   -3.2500    0.0000 H   0  0  0  0  0  0  0  0  0  0  0  0
    3.7321   -3.8700    0.0000 H   0  0  0  0  0  0  0  0  0  0  0  0
    4.3521   -3.2500    0.0000 H   0  0  0  0  0  0  0  0  0  0  0  0
    2.5155    1.9040    0.0000 H   0  0  0  0  0  0  0  0  0  0  0  0
    3.2057    1.5054    0.0000 H   0  0  0  0  0  0  0  0  0  0  0  0
    6.3301    3.8700    0.0000 H   0  0  0  0  0  0  0  0  0  0  0  0
    7.7331    1.4400    0.0000 H   0  0  0  0  0  0  0  0  0  0  0  0
    7.7331    3.0600    0.0000 H   0  0  0  0  0  0  0  0  0  0  0  0
    3.1350    3.2921    0.0000 H   0  0  0  0  0  0  0  0  0  0  0  0
    2.2881    3.5190    0.0000 H   0  0  0  0  0  0  0  0  0  0  0  0
    2.0611    2.6721    0.0000 H   0  0  0  0  0  0  0  0  0  0  0  0
  1  2  1  0  0  0  0
  1  3  2  0  0  0  0
  1  6  1  0  0  0  0
  1  9  1  0  0  0  0
  2 18  1  0  0  0  0
  4  6  2  0  0  0  0
  5  6  1  0  0  0  0
  5  7  2  0  0  0  0
  5  8  1  0  0  0  0
  7 11  1  0  0  0  0
  7 13  1  0  0  0  0
  8 12  2  0  0  0  0
  8 14  1  0  0  0  0
  9 15  2  0  0  0  0
  9 16  1  0  0  0  0
 10 11  2  0  0  0  0
 10 12  1  0  0  0  0
 10 17  1  0  0  0  0
 11 23  1  0  0  0  0
 12 24  1  0  0  0  0
 13 25  1  0  0  0  0
 13 26  1  0  0  0  0
 13 27  1  0  0  0  0
 14 28  1  0  0  0  0
 14 29  1  0  0  0  0
 14 30  1  0  0  0  0
 15 19  1  0  0  0  0
 15 31  1  0  0  0  0
 16 20  2  0  0  0  0
 16 32  1  0  0  0  0
 17 33  1  0  0  0  0
 17 34  1  0  0  0  0
 17 35  1  0  0  0  0
 18 22  1  0  0  0  0
 18 36  1  0  0  0  0
 18 37  1  0  0  0  0
 19 21  2  0  0  0  0
 19 38  1  0  0  0  0
 20 21  1  0  0  0  0
 20 39  1  0  0  0  0
 21 40  1  0  0  0  0
 22 41  1  0  0  0  0
 22 42  1  0  0  0  0
 22 43  1  0  0  0  0
M  END
> <PUBCHEM_COMPOUND_CID>
16205480

> <PUBCHEM_COMPOUND_CANONICALIZED>
1

> <PUBCHEM_CACTVS_COMPLEXITY>
416

> <PUBCHEM_CACTVS_HBOND_ACCEPTOR>
3

> <PUBCHEM_CACTVS_HBOND_DONOR>
0

> <PUBCHEM_CACTVS_ROTATABLE_BOND>
5

> <PUBCHEM_CACTVS_SUBSKEYS>
AAADceB4MAIAAAAAAAAAAAAAAAAAAAAAAAAwYAAAAAAAAAABQAAAGggAACAADACgmAIyAIAAATCIQiBSAIACAAAkAAAIiAEAAMgIIDKAFRCAIQAggAAIiQcIiMCOwAACAAAQAACAAAQAACAAAAAAAAAAAA==

> <PUBCHEM_IUPAC_OPENEYE_NAME>
[ethoxy(phenyl)phosphoryl]-(2,4,6-trimethylphenyl)methanone

> <PUBCHEM_IUPAC_CAS_NAME>
[ethoxy(phenyl)phosphoryl]-(2,4,6-trimethylphenyl)methanone

> <PUBCHEM_IUPAC_NAME_MARKUP>
[ethoxy(phenyl)phosphoryl]-(2,4,6-trimethylphenyl)methanone

> <PUBCHEM_IUPAC_NAME>
[ethoxy(phenyl)phosphoryl]-(2,4,6-trimethylphenyl)methanone

> <PUBCHEM_IUPAC_SYSTEMATIC_NAME>
[ethoxy(phenyl)phosphoryl]-(2,4,6-trimethylphenyl)methanone

> <PUBCHEM_IUPAC_TRADITIONAL_NAME>
[ethoxy(phenyl)phosphoryl]-mesityl-methanone

> <PUBCHEM_IUPAC_INCHI>
InChI=1S/C18H21O3P/c1-5-21-22(20,16-9-7-6-8-10-16)18(19)17-14(3)11-13(2)12-15(17)4/h6-12H,5H2,1-4H3

> <PUBCHEM_IUPAC_INCHIKEY>
ZMDDERVSCYEKPQ-UHFFFAOYSA-N

> <PUBCHEM_XLOGP3_AA>
3.9

> <PUBCHEM_EXACT_MASS>
316.12283153

> <PUBCHEM_MOLECULAR_FORMULA>
C18H21O3P

> <PUBCHEM_MOLECULAR_WEIGHT>
316.3

> <PUBCHEM_SMILES>
CCOP(=O)(C1=CC=CC=C1)C(=O)C2=C(C=C(C=C2C)C)C

> <PUBCHEM_CONNECTIVITY_SMILES>
CCOP(=O)(C1=CC=CC=C1)C(=O)C2=C(C=C(C=C2C)C)C

> <PUBCHEM_CACTVS_TPSA>
43.4

> <PUBCHEM_MONOISOTOPIC_WEIGHT>
316.12283153

> <PUBCHEM_TOTAL_CHARGE>
0

> <PUBCHEM_HEAVY_ATOM_COUNT>
22

> <PUBCHEM_ATOM_DEF_STEREO_COUNT>
0

> <PUBCHEM_ATOM_UDEF_STEREO_COUNT>
1

> <PUBCHEM_BOND_DEF_STEREO_COUNT>
0

> <PUBCHEM_BOND_UDEF_STEREO_COUNT>
0

> <PUBCHEM_ISOTOPIC_ATOM_COUNT>
0

> <PUBCHEM_COMPONENT_COUNT>
1

> <PUBCHEM_CACTVS_TAUTO_COUNT>
-1

> <PUBCHEM_COORDINATE_TYPE>
1
5
255

> <PUBCHEM_BONDANNOTATIONS>
1  6  3
10  11  8
10  12  8
15  19  8
16  20  8
19  21  8
20  21  8
5  7  8
5  8  8
7  11  8
8  12  8
9  15  8
9  16  8

$$$$
