16238
  -OEChem-05122608282D

 27 28  0     0  0  0  0  0  0999 V2000
    2.8660   -0.5173    0.0000 C   0  0  0  0  0  0  0  0  0  0  0  0
    3.7321   -0.0173    0.0000 C   0  0  0  0  0  0  0  0  0  0  0  0
    5.4641   -0.0173    0.0000 C   0  0  0  0  0  0  0  0  0  0  0  0
    4.5981   -0.5173    0.0000 C   0  0  0  0  0  0  0  0  0  0  0  0
    5.4641    0.9827    0.0000 C   0  0  0  0  0  0  0  0  0  0  0  0
    3.7321    0.9827    0.0000 C   0  0  0  0  0  0  0  0  0  0  0  0
    2.0000   -0.0173    0.0000 C   0  0  0  0  0  0  0  0  0  0  0  0
    2.8660   -1.5173    0.0000 C   0  0  0  0  0  0  0  0  0  0  0  0
    4.5981    1.4827    0.0000 C   0  0  0  0  0  0  0  0  0  0  0  0
    6.3580   -0.5520    0.0000 C   0  0  0  0  0  0  0  0  0  0  0  0
    6.3580    1.5173    0.0000 C   0  0  0  0  0  0  0  0  0  0  0  0
    7.2641   -0.0381    0.0000 C   0  0  0  0  0  0  0  0  0  0  0  0
    7.2641    1.0035    0.0000 C   0  0  0  0  0  0  0  0  0  0  0  0
    2.8660    0.1027    0.0000 H   0  0  0  0  0  0  0  0  0  0  0  0
    4.5981   -1.1373    0.0000 H   0  0  0  0  0  0  0  0  0  0  0  0
    3.1951    1.2927    0.0000 H   0  0  0  0  0  0  0  0  0  0  0  0
    2.3100    0.5196    0.0000 H   0  0  0  0  0  0  0  0  0  0  0  0
    1.4631    0.2927    0.0000 H   0  0  0  0  0  0  0  0  0  0  0  0
    1.6900   -0.5543    0.0000 H   0  0  0  0  0  0  0  0  0  0  0  0
    2.2460   -1.5173    0.0000 H   0  0  0  0  0  0  0  0  0  0  0  0
    2.8660   -2.1373    0.0000 H   0  0  0  0  0  0  0  0  0  0  0  0
    3.4860   -1.5173    0.0000 H   0  0  0  0  0  0  0  0  0  0  0  0
    4.5981    2.1027    0.0000 H   0  0  0  0  0  0  0  0  0  0  0  0
    6.3509   -1.1720    0.0000 H   0  0  0  0  0  0  0  0  0  0  0  0
    6.3509    2.1373    0.0000 H   0  0  0  0  0  0  0  0  0  0  0  0
    7.7999   -0.3502    0.0000 H   0  0  0  0  0  0  0  0  0  0  0  0
    7.7999    1.3156    0.0000 H   0  0  0  0  0  0  0  0  0  0  0  0
  1  2  1  0  0  0  0
  1  7  1  0  0  0  0
  1  8  1  0  0  0  0
  1 14  1  0  0  0  0
  2  4  2  0  0  0  0
  2  6  1  0  0  0  0
  3  4  1  0  0  0  0
  3  5  1  0  0  0  0
  3 10  2  0  0  0  0
  4 15  1  0  0  0  0
  5  9  1  0  0  0  0
  5 11  2  0  0  0  0
  6  9  2  0  0  0  0
  6 16  1  0  0  0  0
  7 17  1  0  0  0  0
  7 18  1  0  0  0  0
  7 19  1  0  0  0  0
  8 20  1  0  0  0  0
  8 21  1  0  0  0  0
  8 22  1  0  0  0  0
  9 23  1  0  0  0  0
 10 12  1  0  0  0  0
 10 24  1  0  0  0  0
 11 13  1  0  0  0  0
 11 25  1  0  0  0  0
 12 13  2  0  0  0  0
 12 26  1  0  0  0  0
 13 27  1  0  0  0  0
M  END
> <PUBCHEM_COMPOUND_CID>
16238

> <PUBCHEM_COMPOUND_CANONICALIZED>
1

> <PUBCHEM_CACTVS_COMPLEXITY>
159

> <PUBCHEM_CACTVS_HBOND_ACCEPTOR>
0

> <PUBCHEM_CACTVS_HBOND_DONOR>
0

> <PUBCHEM_CACTVS_ROTATABLE_BOND>
1

> <PUBCHEM_CACTVS_SUBSKEYS>
AAADccBwAAAAAAAAAAAAAAAAAAAAAAAAAAAwYAAAAAAAAADBUAAAGAAAAAAADQCAGAAyAMAAAACAAiBCAAACAAAgAAAIiAAAAIgIICKAERCAIAAggAAIiAcAgMAOwAACAAAQAACAAAQAACAAAAAAAAAAAA==

> <PUBCHEM_IUPAC_OPENEYE_NAME>
2-isopropylnaphthalene

> <PUBCHEM_IUPAC_CAS_NAME>
2-propan-2-ylnaphthalene

> <PUBCHEM_IUPAC_NAME_MARKUP>
2-propan-2-ylnaphthalene

> <PUBCHEM_IUPAC_NAME>
2-propan-2-ylnaphthalene

> <PUBCHEM_IUPAC_SYSTEMATIC_NAME>
2-propan-2-ylnaphthalene

> <PUBCHEM_IUPAC_TRADITIONAL_NAME>
2-isopropylnaphthalene

> <PUBCHEM_IUPAC_INCHI>
InChI=1S/C13H14/c1-10(2)12-8-7-11-5-3-4-6-13(11)9-12/h3-10H,1-2H3

> <PUBCHEM_IUPAC_INCHIKEY>
TVYVQNHYIHAJTD-UHFFFAOYSA-N

> <PUBCHEM_XLOGP3>
4.6

> <PUBCHEM_EXACT_MASS>
170.109550447

> <PUBCHEM_MOLECULAR_FORMULA>
C13H14

> <PUBCHEM_MOLECULAR_WEIGHT>
170.25

> <PUBCHEM_SMILES>
CC(C)C1=CC2=CC=CC=C2C=C1

> <PUBCHEM_CONNECTIVITY_SMILES>
CC(C)C1=CC2=CC=CC=C2C=C1

> <PUBCHEM_CACTVS_TPSA>
0

> <PUBCHEM_MONOISOTOPIC_WEIGHT>
170.109550447

> <PUBCHEM_TOTAL_CHARGE>
0

> <PUBCHEM_HEAVY_ATOM_COUNT>
13

> <PUBCHEM_ATOM_DEF_STEREO_COUNT>
0

> <PUBCHEM_ATOM_UDEF_STEREO_COUNT>
0

> <PUBCHEM_BOND_DEF_STEREO_COUNT>
0

> <PUBCHEM_BOND_UDEF_STEREO_COUNT>
0

> <PUBCHEM_ISOTOPIC_ATOM_COUNT>
0

> <PUBCHEM_COMPONENT_COUNT>
1

> <PUBCHEM_CACTVS_TAUTO_COUNT>
-1

> <PUBCHEM_COORDINATE_TYPE>
1
5
255

> <PUBCHEM_BONDANNOTATIONS>
10  12  8
11  13  8
12  13  8
2  4  8
2  6  8
3  10  8
3  4  8
3  5  8
5  11  8
5  9  8
6  9  8

$$$$
