164512
  -OEChem-05122608182D

 57 59  0     0  0  0  0  0  0999 V2000
    5.5641    0.5314    0.0000 P   0  0  0  0  0  0  0  0  0  0  0  0
    6.0641   -0.3347    0.0000 O   0  0  0  0  0  0  0  0  0  0  0  0
    3.7133   -0.1423    0.0000 O   0  0  0  0  0  0  0  0  0  0  0  0
    5.5641    2.2634    0.0000 O   0  0  0  0  0  0  0  0  0  0  0  0
    4.6981    0.0314    0.0000 C   0  0  0  0  0  0  0  0  0  0  0  0
    5.0641    1.3974    0.0000 C   0  0  0  0  0  0  0  0  0  0  0  0
    4.6981   -0.9686    0.0000 C   0  0  0  0  0  0  0  0  0  0  0  0
    4.2981    2.0403    0.0000 C   0  0  0  0  0  0  0  0  0  0  0  0
    6.4301    1.0314    0.0000 C   0  0  0  0  0  0  0  0  0  0  0  0
    3.8321   -1.4686    0.0000 C   0  0  0  0  0  0  0  0  0  0  0  0
    3.3584    1.6982    0.0000 C   0  0  0  0  0  0  0  0  0  0  0  0
    5.5641   -1.4686    0.0000 C   0  0  0  0  0  0  0  0  0  0  0  0
    4.4717    3.0250    0.0000 C   0  0  0  0  0  0  0  0  0  0  0  0
    4.6981   -2.9686    0.0000 C   0  0  0  0  0  0  0  0  0  0  0  0
    2.7660    3.3258    0.0000 C   0  0  0  0  0  0  0  0  0  0  0  0
    3.8321   -2.4686    0.0000 C   0  0  0  0  0  0  0  0  0  0  0  0
    2.5924    2.3410    0.0000 C   0  0  0  0  0  0  0  0  0  0  0  0
    5.5641   -2.4686    0.0000 C   0  0  0  0  0  0  0  0  0  0  0  0
    3.7057    3.6678    0.0000 C   0  0  0  0  0  0  0  0  0  0  0  0
    6.4301    2.0314    0.0000 C   0  0  0  0  0  0  0  0  0  0  0  0
    7.2962    0.5314    0.0000 C   0  0  0  0  0  0  0  0  0  0  0  0
    2.9660   -0.9686    0.0000 C   0  0  0  0  0  0  0  0  0  0  0  0
    3.1847    0.7133    0.0000 C   0  0  0  0  0  0  0  0  0  0  0  0
    6.4301   -0.9686    0.0000 C   0  0  0  0  0  0  0  0  0  0  0  0
    5.4114    3.3670    0.0000 C   0  0  0  0  0  0  0  0  0  0  0  0
    7.2962    2.5314    0.0000 C   0  0  0  0  0  0  0  0  0  0  0  0
    8.1622    1.0314    0.0000 C   0  0  0  0  0  0  0  0  0  0  0  0
    4.6981   -3.9686    0.0000 C   0  0  0  0  0  0  0  0  0  0  0  0
    2.0000    3.9686    0.0000 C   0  0  0  0  0  0  0  0  0  0  0  0
    8.1622    2.0314    0.0000 C   0  0  0  0  0  0  0  0  0  0  0  0
    3.2951   -2.7786    0.0000 H   0  0  0  0  0  0  0  0  0  0  0  0
    2.0097    2.1290    0.0000 H   0  0  0  0  0  0  0  0  0  0  0  0
    6.1011   -2.7786    0.0000 H   0  0  0  0  0  0  0  0  0  0  0  0
    3.8134    4.2784    0.0000 H   0  0  0  0  0  0  0  0  0  0  0  0
    5.8932    2.3414    0.0000 H   0  0  0  0  0  0  0  0  0  0  0  0
    7.2962   -0.0886    0.0000 H   0  0  0  0  0  0  0  0  0  0  0  0
    3.2760   -0.4317    0.0000 H   0  0  0  0  0  0  0  0  0  0  0  0
    2.4291   -0.6586    0.0000 H   0  0  0  0  0  0  0  0  0  0  0  0
    2.6560   -1.5056    0.0000 H   0  0  0  0  0  0  0  0  0  0  0  0
    2.5742    0.8210    0.0000 H   0  0  0  0  0  0  0  0  0  0  0  0
    3.0771    0.1027    0.0000 H   0  0  0  0  0  0  0  0  0  0  0  0
    3.7953    0.6057    0.0000 H   0  0  0  0  0  0  0  0  0  0  0  0
    6.7401   -1.5056    0.0000 H   0  0  0  0  0  0  0  0  0  0  0  0
    6.9671   -0.6586    0.0000 H   0  0  0  0  0  0  0  0  0  0  0  0
    6.1201   -0.4317    0.0000 H   0  0  0  0  0  0  0  0  0  0  0  0
    5.6235    2.7844    0.0000 H   0  0  0  0  0  0  0  0  0  0  0  0
    5.9940    3.5791    0.0000 H   0  0  0  0  0  0  0  0  0  0  0  0
    5.1994    3.9496    0.0000 H   0  0  0  0  0  0  0  0  0  0  0  0
    7.2962    3.1514    0.0000 H   0  0  0  0  0  0  0  0  0  0  0  0
    8.6991    0.7214    0.0000 H   0  0  0  0  0  0  0  0  0  0  0  0
    4.0781   -3.9686    0.0000 H   0  0  0  0  0  0  0  0  0  0  0  0
    4.6981   -4.5886    0.0000 H   0  0  0  0  0  0  0  0  0  0  0  0
    5.3181   -3.9686    0.0000 H   0  0  0  0  0  0  0  0  0  0  0  0
    2.3985    4.4436    0.0000 H   0  0  0  0  0  0  0  0  0  0  0  0
    1.5251    4.3672    0.0000 H   0  0  0  0  0  0  0  0  0  0  0  0
    1.6015    3.4937    0.0000 H   0  0  0  0  0  0  0  0  0  0  0  0
    8.6991    2.3414    0.0000 H   0  0  0  0  0  0  0  0  0  0  0  0
  1  2  2  0  0  0  0
  1  5  1  0  0  0  0
  1  6  1  0  0  0  0
  1  9  1  0  0  0  0
  3  5  2  0  0  0  0
  4  6  2  0  0  0  0
  5  7  1  0  0  0  0
  6  8  1  0  0  0  0
  7 10  2  0  0  0  0
  7 12  1  0  0  0  0
  8 11  2  0  0  0  0
  8 13  1  0  0  0  0
  9 20  2  0  0  0  0
  9 21  1  0  0  0  0
 10 16  1  0  0  0  0
 10 22  1  0  0  0  0
 11 17  1  0  0  0  0
 11 23  1  0  0  0  0
 12 18  2  0  0  0  0
 12 24  1  0  0  0  0
 13 19  2  0  0  0  0
 13 25  1  0  0  0  0
 14 16  2  0  0  0  0
 14 18  1  0  0  0  0
 14 28  1  0  0  0  0
 15 17  2  0  0  0  0
 15 19  1  0  0  0  0
 15 29  1  0  0  0  0
 16 31  1  0  0  0  0
 17 32  1  0  0  0  0
 18 33  1  0  0  0  0
 19 34  1  0  0  0  0
 20 26  1  0  0  0  0
 20 35  1  0  0  0  0
 21 27  2  0  0  0  0
 21 36  1  0  0  0  0
 22 37  1  0  0  0  0
 22 38  1  0  0  0  0
 22 39  1  0  0  0  0
 23 40  1  0  0  0  0
 23 41  1  0  0  0  0
 23 42  1  0  0  0  0
 24 43  1  0  0  0  0
 24 44  1  0  0  0  0
 24 45  1  0  0  0  0
 25 46  1  0  0  0  0
 25 47  1  0  0  0  0
 25 48  1  0  0  0  0
 26 30  2  0  0  0  0
 26 49  1  0  0  0  0
 27 30  1  0  0  0  0
 27 50  1  0  0  0  0
 28 51  1  0  0  0  0
 28 52  1  0  0  0  0
 28 53  1  0  0  0  0
 29 54  1  0  0  0  0
 29 55  1  0  0  0  0
 29 56  1  0  0  0  0
 30 57  1  0  0  0  0
M  END
> <PUBCHEM_COMPOUND_CID>
164512

> <PUBCHEM_COMPOUND_CANONICALIZED>
1

> <PUBCHEM_CACTVS_COMPLEXITY>
610

> <PUBCHEM_CACTVS_HBOND_ACCEPTOR>
3

> <PUBCHEM_CACTVS_HBOND_DONOR>
0

> <PUBCHEM_CACTVS_ROTATABLE_BOND>
5

> <PUBCHEM_CACTVS_SUBSKEYS>
AAADceB4MAIAAAAAAAAAAAAAAAAAAAAAAAAwYMAAAAAAAAABUAAAGggAACAADACAmAAyAIAAACCIQiBSAAACAAAkAAAIiAEAAMgIIDKAFRCAIQAggAAIiQcIiMCOwAACAAAQAACAAAQAACAAAAAAAAAAAA==

> <PUBCHEM_IUPAC_OPENEYE_NAME>
[phenyl-(2,4,6-trimethylbenzoyl)phosphoryl]-(2,4,6-trimethylphenyl)methanone

> <PUBCHEM_IUPAC_CAS_NAME>
[[oxo-(2,4,6-trimethylphenyl)methyl]-phenylphosphoryl]-(2,4,6-trimethylphenyl)methanone

> <PUBCHEM_IUPAC_NAME_MARKUP>
[phenyl-(2,4,6-trimethylbenzoyl)phosphoryl]-(2,4,6-trimethylphenyl)methanone

> <PUBCHEM_IUPAC_NAME>
[phenyl-(2,4,6-trimethylbenzoyl)phosphoryl]-(2,4,6-trimethylphenyl)methanone

> <PUBCHEM_IUPAC_SYSTEMATIC_NAME>
[phenyl-(2,4,6-trimethylphenyl)carbonyl-phosphoryl]-(2,4,6-trimethylphenyl)methanone

> <PUBCHEM_IUPAC_TRADITIONAL_NAME>
mesityl-[phenyl-(2,4,6-trimethylbenzoyl)phosphoryl]methanone

> <PUBCHEM_IUPAC_INCHI>
InChI=1S/C26H27O3P/c1-16-12-18(3)23(19(4)13-16)25(27)30(29,22-10-8-7-9-11-22)26(28)24-20(5)14-17(2)15-21(24)6/h7-15H,1-6H3

> <PUBCHEM_IUPAC_INCHIKEY>
GUCYFKSBFREPBC-UHFFFAOYSA-N

> <PUBCHEM_XLOGP3_AA>
6

> <PUBCHEM_EXACT_MASS>
418.16978172

> <PUBCHEM_MOLECULAR_FORMULA>
C26H27O3P

> <PUBCHEM_MOLECULAR_WEIGHT>
418.5

> <PUBCHEM_SMILES>
CC1=CC(=C(C(=C1)C)C(=O)P(=O)(C2=CC=CC=C2)C(=O)C3=C(C=C(C=C3C)C)C)C

> <PUBCHEM_CONNECTIVITY_SMILES>
CC1=CC(=C(C(=C1)C)C(=O)P(=O)(C2=CC=CC=C2)C(=O)C3=C(C=C(C=C3C)C)C)C

> <PUBCHEM_CACTVS_TPSA>
51.2

> <PUBCHEM_MONOISOTOPIC_WEIGHT>
418.16978172

> <PUBCHEM_TOTAL_CHARGE>
0

> <PUBCHEM_HEAVY_ATOM_COUNT>
30

> <PUBCHEM_ATOM_DEF_STEREO_COUNT>
0

> <PUBCHEM_ATOM_UDEF_STEREO_COUNT>
0

> <PUBCHEM_BOND_DEF_STEREO_COUNT>
0

> <PUBCHEM_BOND_UDEF_STEREO_COUNT>
0

> <PUBCHEM_ISOTOPIC_ATOM_COUNT>
0

> <PUBCHEM_COMPONENT_COUNT>
1

> <PUBCHEM_CACTVS_TAUTO_COUNT>
-1

> <PUBCHEM_COORDINATE_TYPE>
1
5
255

> <PUBCHEM_BONDANNOTATIONS>
10  16  8
11  17  8
12  18  8
13  19  8
14  16  8
14  18  8
15  17  8
15  19  8
20  26  8
21  27  8
26  30  8
27  30  8
7  10  8
7  12  8
8  11  8
8  13  8
9  20  8
9  21  8

$$$$
