164885287
  -OEChem-05122609042D

 98 97  0     1  0  0  0  0  0999 V2000
   10.6603    2.5131    0.0000 P   0  0  3  0  0  0  0  0  0  0  0  0
   16.2224    4.8792    0.0000 F   0  0  0  0  0  0  0  0  0  0  0  0
   17.2224    3.1471    0.0000 F   0  0  0  0  0  0  0  0  0  0  0  0
   15.3564    4.3792    0.0000 F   0  0  0  0  0  0  0  0  0  0  0  0
   16.3564    2.6471    0.0000 F   0  0  0  0  0  0  0  0  0  0  0  0
   17.0885    5.3792    0.0000 F   0  0  0  0  0  0  0  0  0  0  0  0
   18.0885    3.6471    0.0000 F   0  0  0  0  0  0  0  0  0  0  0  0
   14.4904    3.8792    0.0000 F   0  0  0  0  0  0  0  0  0  0  0  0
   15.4904    2.1471    0.0000 F   0  0  0  0  0  0  0  0  0  0  0  0
   17.9545    5.8792    0.0000 F   0  0  0  0  0  0  0  0  0  0  0  0
   18.9545    4.1471    0.0000 F   0  0  0  0  0  0  0  0  0  0  0  0
   13.6244    3.3792    0.0000 F   0  0  0  0  0  0  0  0  0  0  0  0
   14.6244    1.6471    0.0000 F   0  0  0  0  0  0  0  0  0  0  0  0
   19.8205    4.6471    0.0000 F   0  0  0  0  0  0  0  0  0  0  0  0
   18.8205    6.3792    0.0000 F   0  0  0  0  0  0  0  0  0  0  0  0
   10.7942   -3.1830    0.0000 F   0  0  0  0  0  0  0  0  0  0  0  0
   12.5263   -2.1830    0.0000 F   0  0  0  0  0  0  0  0  0  0  0  0
   10.2942   -2.3170    0.0000 F   0  0  0  0  0  0  0  0  0  0  0  0
   12.0263   -1.3170    0.0000 F   0  0  0  0  0  0  0  0  0  0  0  0
   11.2942   -4.0490    0.0000 F   0  0  0  0  0  0  0  0  0  0  0  0
   13.0263   -3.0490    0.0000 F   0  0  0  0  0  0  0  0  0  0  0  0
    9.7942   -1.4510    0.0000 F   0  0  0  0  0  0  0  0  0  0  0  0
   11.5263   -0.4510    0.0000 F   0  0  0  0  0  0  0  0  0  0  0  0
   20.6865    5.1471    0.0000 F   0  0  0  0  0  0  0  0  0  0  0  0
   19.6865    6.8792    0.0000 F   0  0  0  0  0  0  0  0  0  0  0  0
   11.7942   -4.9151    0.0000 F   0  0  0  0  0  0  0  0  0  0  0  0
   13.5263   -3.9151    0.0000 F   0  0  0  0  0  0  0  0  0  0  0  0
   12.2942   -5.7811    0.0000 F   0  0  0  0  0  0  0  0  0  0  0  0
   14.0263   -4.7811    0.0000 F   0  0  0  0  0  0  0  0  0  0  0  0
   21.5526    5.6471    0.0000 F   0  0  0  0  0  0  0  0  0  0  0  0
   20.5526    7.3792    0.0000 F   0  0  0  0  0  0  0  0  0  0  0  0
    5.8301    2.8792    0.0000 F   0  0  0  0  0  0  0  0  0  0  0  0
    6.8301    1.1471    0.0000 F   0  0  0  0  0  0  0  0  0  0  0  0
    6.6962    3.3792    0.0000 F   0  0  0  0  0  0  0  0  0  0  0  0
    7.6962    1.6471    0.0000 F   0  0  0  0  0  0  0  0  0  0  0  0
    4.9641    2.3792    0.0000 F   0  0  0  0  0  0  0  0  0  0  0  0
    5.9641    0.6471    0.0000 F   0  0  0  0  0  0  0  0  0  0  0  0
   12.7942   -6.6471    0.0000 F   0  0  0  0  0  0  0  0  0  0  0  0
   14.5263   -5.6471    0.0000 F   0  0  0  0  0  0  0  0  0  0  0  0
    4.0981    1.8792    0.0000 F   0  0  0  0  0  0  0  0  0  0  0  0
    5.0981    0.1471    0.0000 F   0  0  0  0  0  0  0  0  0  0  0  0
   22.7846    7.5131    0.0000 F   0  0  0  0  0  0  0  0  0  0  0  0
   22.4186    6.1471    0.0000 F   0  0  0  0  0  0  0  0  0  0  0  0
   21.4186    7.8792    0.0000 F   0  0  0  0  0  0  0  0  0  0  0  0
    3.2320    1.3792    0.0000 F   0  0  0  0  0  0  0  0  0  0  0  0
    4.2320   -0.3529    0.0000 F   0  0  0  0  0  0  0  0  0  0  0  0
   14.6603   -7.8792    0.0000 F   0  0  0  0  0  0  0  0  0  0  0  0
   13.2942   -7.5131    0.0000 F   0  0  0  0  0  0  0  0  0  0  0  0
   15.0263   -6.5131    0.0000 F   0  0  0  0  0  0  0  0  0  0  0  0
    2.0000   -0.4869    0.0000 F   0  0  0  0  0  0  0  0  0  0  0  0
    2.3660    0.8792    0.0000 F   0  0  0  0  0  0  0  0  0  0  0  0
    3.3660   -0.8529    0.0000 F   0  0  0  0  0  0  0  0  0  0  0  0
   11.5263    2.0131    0.0000 O   0  0  0  0  0  0  0  0  0  0  0  0
   10.1603    1.6471    0.0000 O   0  0  0  0  0  0  0  0  0  0  0  0
    9.7942    3.0131    0.0000 O   0  0  0  0  0  0  0  0  0  0  0  0
   11.1603    3.3792    0.0000 O   0  0  0  0  0  0  0  0  0  0  0  0
   16.7224    4.0131    0.0000 C   0  0  0  0  0  0  0  0  0  0  0  0
   15.8564    3.5131    0.0000 C   0  0  0  0  0  0  0  0  0  0  0  0
   17.5885    4.5131    0.0000 C   0  0  0  0  0  0  0  0  0  0  0  0
   14.9904    3.0131    0.0000 C   0  0  0  0  0  0  0  0  0  0  0  0
   18.4545    5.0131    0.0000 C   0  0  0  0  0  0  0  0  0  0  0  0
   14.1244    2.5131    0.0000 C   0  0  0  0  0  0  0  0  0  0  0  0
   19.3205    5.5131    0.0000 C   0  0  0  0  0  0  0  0  0  0  0  0
   11.6603   -2.6830    0.0000 C   0  0  0  0  0  0  0  0  0  0  0  0
   11.1603   -1.8170    0.0000 C   0  0  0  0  0  0  0  0  0  0  0  0
   12.1603   -3.5490    0.0000 C   0  0  0  0  0  0  0  0  0  0  0  0
   13.2583    2.0131    0.0000 C   0  0  0  0  0  0  0  0  0  0  0  0
   20.1865    6.0131    0.0000 C   0  0  0  0  0  0  0  0  0  0  0  0
   10.6603   -0.9510    0.0000 C   0  0  0  0  0  0  0  0  0  0  0  0
   12.6603   -4.4151    0.0000 C   0  0  0  0  0  0  0  0  0  0  0  0
   10.1603   -0.0849    0.0000 C   0  0  0  0  0  0  0  0  0  0  0  0
   13.1603   -5.2811    0.0000 C   0  0  0  0  0  0  0  0  0  0  0  0
   12.3923    2.5131    0.0000 C   0  0  0  0  0  0  0  0  0  0  0  0
   21.0526    6.5131    0.0000 C   0  0  0  0  0  0  0  0  0  0  0  0
    6.3301    2.0131    0.0000 C   0  0  0  0  0  0  0  0  0  0  0  0
    7.1962    2.5131    0.0000 C   0  0  0  0  0  0  0  0  0  0  0  0
   10.6603    0.7811    0.0000 C   0  0  0  0  0  0  0  0  0  0  0  0
    5.4641    1.5131    0.0000 C   0  0  0  0  0  0  0  0  0  0  0  0
    8.0622    3.0131    0.0000 C   0  0  0  0  0  0  0  0  0  0  0  0
   13.6603   -6.1471    0.0000 C   0  0  0  0  0  0  0  0  0  0  0  0
    4.5981    1.0131    0.0000 C   0  0  0  0  0  0  0  0  0  0  0  0
    8.9282    2.5131    0.0000 C   0  0  0  0  0  0  0  0  0  0  0  0
   21.9186    7.0131    0.0000 C   0  0  0  0  0  0  0  0  0  0  0  0
    3.7320    0.5131    0.0000 C   0  0  0  0  0  0  0  0  0  0  0  0
   14.1603   -7.0131    0.0000 C   0  0  0  0  0  0  0  0  0  0  0  0
    2.8660    0.0131    0.0000 C   0  0  0  0  0  0  0  0  0  0  0  0
   12.8598    1.5382    0.0000 H   0  0  0  0  0  0  0  0  0  0  0  0
   13.6569    1.5382    0.0000 H   0  0  0  0  0  0  0  0  0  0  0  0
    9.6853    0.3136    0.0000 H   0  0  0  0  0  0  0  0  0  0  0  0
    9.6853   -0.4835    0.0000 H   0  0  0  0  0  0  0  0  0  0  0  0
   12.7908    2.9881    0.0000 H   0  0  0  0  0  0  0  0  0  0  0  0
   11.9938    2.9881    0.0000 H   0  0  0  0  0  0  0  0  0  0  0  0
   11.1352    0.3826    0.0000 H   0  0  0  0  0  0  0  0  0  0  0  0
   11.1352    1.1796    0.0000 H   0  0  0  0  0  0  0  0  0  0  0  0
    8.4607    3.4881    0.0000 H   0  0  0  0  0  0  0  0  0  0  0  0
    7.6636    3.4881    0.0000 H   0  0  0  0  0  0  0  0  0  0  0  0
    8.5297    2.0382    0.0000 H   0  0  0  0  0  0  0  0  0  0  0  0
    9.3267    2.0382    0.0000 H   0  0  0  0  0  0  0  0  0  0  0  0
  1 53  1  0  0  0  0
  1 54  1  0  0  0  0
  1 55  1  0  0  0  0
  1 56  2  0  0  0  0
  2 57  1  0  0  0  0
  3 57  1  0  0  0  0
  4 58  1  0  0  0  0
  5 58  1  0  0  0  0
  6 59  1  0  0  0  0
  7 59  1  0  0  0  0
  8 60  1  0  0  0  0
  9 60  1  0  0  0  0
 10 61  1  0  0  0  0
 11 61  1  0  0  0  0
 12 62  1  0  0  0  0
 13 62  1  0  0  0  0
 14 63  1  0  0  0  0
 15 63  1  0  0  0  0
 16 64  1  0  0  0  0
 17 64  1  0  0  0  0
 18 65  1  0  0  0  0
 19 65  1  0  0  0  0
 20 66  1  0  0  0  0
 21 66  1  0  0  0  0
 22 69  1  0  0  0  0
 23 69  1  0  0  0  0
 24 68  1  0  0  0  0
 25 68  1  0  0  0  0
 26 70  1  0  0  0  0
 27 70  1  0  0  0  0
 28 72  1  0  0  0  0
 29 72  1  0  0  0  0
 30 74  1  0  0  0  0
 31 74  1  0  0  0  0
 32 75  1  0  0  0  0
 33 75  1  0  0  0  0
 34 76  1  0  0  0  0
 35 76  1  0  0  0  0
 36 78  1  0  0  0  0
 37 78  1  0  0  0  0
 38 80  1  0  0  0  0
 39 80  1  0  0  0  0
 40 81  1  0  0  0  0
 41 81  1  0  0  0  0
 42 83  1  0  0  0  0
 43 83  1  0  0  0  0
 44 83  1  0  0  0  0
 45 84  1  0  0  0  0
 46 84  1  0  0  0  0
 47 85  1  0  0  0  0
 48 85  1  0  0  0  0
 49 85  1  0  0  0  0
 50 86  1  0  0  0  0
 51 86  1  0  0  0  0
 52 86  1  0  0  0  0
 53 73  1  0  0  0  0
 54 77  1  0  0  0  0
 55 82  1  0  0  0  0
 57 58  1  0  0  0  0
 57 59  1  0  0  0  0
 58 60  1  0  0  0  0
 59 61  1  0  0  0  0
 60 62  1  0  0  0  0
 61 63  1  0  0  0  0
 62 67  1  0  0  0  0
 63 68  1  0  0  0  0
 64 65  1  0  0  0  0
 64 66  1  0  0  0  0
 65 69  1  0  0  0  0
 66 70  1  0  0  0  0
 67 73  1  0  0  0  0
 67 87  1  0  0  0  0
 67 88  1  0  0  0  0
 68 74  1  0  0  0  0
 69 71  1  0  0  0  0
 70 72  1  0  0  0  0
 71 77  1  0  0  0  0
 71 89  1  0  0  0  0
 71 90  1  0  0  0  0
 72 80  1  0  0  0  0
 73 91  1  0  0  0  0
 73 92  1  0  0  0  0
 74 83  1  0  0  0  0
 75 76  1  0  0  0  0
 75 78  1  0  0  0  0
 76 79  1  0  0  0  0
 77 93  1  0  0  0  0
 77 94  1  0  0  0  0
 78 81  1  0  0  0  0
 79 82  1  0  0  0  0
 79 95  1  0  0  0  0
 79 96  1  0  0  0  0
 80 85  1  0  0  0  0
 81 84  1  0  0  0  0
 82 97  1  0  0  0  0
 82 98  1  0  0  0  0
 84 86  1  0  0  0  0
M  END
> <PUBCHEM_COMPOUND_CID>
164885287

> <PUBCHEM_COMPOUND_CANONICALIZED>
1

> <PUBCHEM_CACTVS_COMPLEXITY>
2390

> <PUBCHEM_CACTVS_HBOND_ACCEPTOR>
55

> <PUBCHEM_CACTVS_HBOND_DONOR>
0

> <PUBCHEM_CACTVS_ROTATABLE_BOND>
30

> <PUBCHEM_CACTVS_SUBSKEYS>
AAADccB4OcIAAAAAAAAAAAAAAAAAAAAAAAAAAAAAAAAAAAAAAAAAGwAAACAACACggBIAAAAAARAAQAAAAIAAAAAAAAAAAAAAAAAAAAIAAAAAAAAEAAAAAAGAwKAAAAAAAAAAAAAAAAAAAAAAAAAAAAAAAA==

> <PUBCHEM_IUPAC_OPENEYE_NAME>
3,3,4,4,5,5,6,6,7,7,8,8,9,9,10,10,11,11,12,12,12-henicosafluorododecyl 3,3,4,4,5,5,6,6,7,7,8,8,9,9,10,10,10-heptadecafluorodecyl 3,3,4,4,5,5,6,6,7,7,8,8,8-tridecafluorooctyl phosphate

> <PUBCHEM_IUPAC_CAS_NAME>
phosphoric acid 3,3,4,4,5,5,6,6,7,7,8,8,9,9,10,10,11,11,12,12,12-heneicosafluorododecyl 3,3,4,4,5,5,6,6,7,7,8,8,9,9,10,10,10-heptadecafluorodecyl 3,3,4,4,5,5,6,6,7,7,8,8,8-tridecafluorooctyl ester

> <PUBCHEM_IUPAC_NAME_MARKUP>
3,3,4,4,5,5,6,6,7,7,8,8,9,9,10,10,11,11,12,12,12-henicosafluorododecyl 3,3,4,4,5,5,6,6,7,7,8,8,9,9,10,10,10-heptadecafluorodecyl 3,3,4,4,5,5,6,6,7,7,8,8,8-tridecafluorooctyl phosphate

> <PUBCHEM_IUPAC_NAME>
3,3,4,4,5,5,6,6,7,7,8,8,9,9,10,10,11,11,12,12,12-henicosafluorododecyl 3,3,4,4,5,5,6,6,7,7,8,8,9,9,10,10,10-heptadecafluorodecyl 3,3,4,4,5,5,6,6,7,7,8,8,8-tridecafluorooctyl phosphate

> <PUBCHEM_IUPAC_SYSTEMATIC_NAME>
3,3,4,4,5,5,6,6,7,7,8,8,9,9,10,10,11,11,12,12,12-henicosakis(fluoranyl)dodecyl 3,3,4,4,5,5,6,6,7,7,8,8,9,9,10,10,10-heptadecakis(fluoranyl)decyl 3,3,4,4,5,5,6,6,7,7,8,8,8-tridecakis(fluoranyl)octyl phosphate

> <PUBCHEM_IUPAC_TRADITIONAL_NAME>
phosphoric acid 3,3,4,4,5,5,6,6,7,7,8,8,9,9,10,10,11,11,12,12,12-heneicosafluorododecyl 3,3,4,4,5,5,6,6,7,7,8,8,9,9,10,10,10-heptadecafluorodecyl 3,3,4,4,5,5,6,6,7,7,8,8,8-tridecafluorooctyl ester

> <PUBCHEM_IUPAC_INCHI>
InChI=1S/C30H12F51O4P/c31-7(32,10(37,38)13(43,44)16(49,50)18(53,54)19(55,56)21(59,60)24(65,66)27(71,72)30(79,80)81)1-4-83-86(82,85-6-3-9(35,36)12(41,42)15(47,48)22(61,62)25(67,68)28(73,74)75)84-5-2-8(33,34)11(39,40)14(45,46)17(51,52)20(57,58)23(63,64)26(69,70)29(76,77)78/h1-6H2

> <PUBCHEM_IUPAC_INCHIKEY>
IKFQXOFWHPWSHX-UHFFFAOYSA-N

> <PUBCHEM_XLOGP3_AA>
18

> <PUBCHEM_EXACT_MASS>
1435.9658821

> <PUBCHEM_MOLECULAR_FORMULA>
C30H12F51O4P

> <PUBCHEM_MOLECULAR_WEIGHT>
1436.3

> <PUBCHEM_SMILES>
C(COP(=O)(OCCC(C(C(C(C(C(C(C(F)(F)F)(F)F)(F)F)(F)F)(F)F)(F)F)(F)F)(F)F)OCCC(C(C(C(C(C(F)(F)F)(F)F)(F)F)(F)F)(F)F)(F)F)C(C(C(C(C(C(C(C(C(C(F)(F)F)(F)F)(F)F)(F)F)(F)F)(F)F)(F)F)(F)F)(F)F)(F)F

> <PUBCHEM_CONNECTIVITY_SMILES>
C(COP(=O)(OCCC(C(C(C(C(C(C(C(F)(F)F)(F)F)(F)F)(F)F)(F)F)(F)F)(F)F)(F)F)OCCC(C(C(C(C(C(F)(F)F)(F)F)(F)F)(F)F)(F)F)(F)F)C(C(C(C(C(C(C(C(C(C(F)(F)F)(F)F)(F)F)(F)F)(F)F)(F)F)(F)F)(F)F)(F)F)(F)F

> <PUBCHEM_CACTVS_TPSA>
44.8

> <PUBCHEM_MONOISOTOPIC_WEIGHT>
1435.9658821

> <PUBCHEM_TOTAL_CHARGE>
0

> <PUBCHEM_HEAVY_ATOM_COUNT>
86

> <PUBCHEM_ATOM_DEF_STEREO_COUNT>
0

> <PUBCHEM_ATOM_UDEF_STEREO_COUNT>
1

> <PUBCHEM_BOND_DEF_STEREO_COUNT>
0

> <PUBCHEM_BOND_UDEF_STEREO_COUNT>
0

> <PUBCHEM_ISOTOPIC_ATOM_COUNT>
0

> <PUBCHEM_COMPONENT_COUNT>
1

> <PUBCHEM_CACTVS_TAUTO_COUNT>
-1

> <PUBCHEM_COORDINATE_TYPE>
1
5
255

> <PUBCHEM_BONDANNOTATIONS>
1  53  3

$$$$
