164847
  -OEChem-05122609162D

 78 79  0     0  0  0  0  0  0999 V2000
    2.8660    2.5000    0.0000 O   0  0  0  0  0  0  0  0  0  0  0  0
    9.7942   -2.5000    0.0000 O   0  0  0  0  0  0  0  0  0  0  0  0
    2.8660    0.5000    0.0000 C   0  0  0  0  0  0  0  0  0  0  0  0
    9.7942   -0.5000    0.0000 C   0  0  0  0  0  0  0  0  0  0  0  0
    4.5981    3.5000    0.0000 C   0  0  0  0  0  0  0  0  0  0  0  0
    8.0622   -3.5000    0.0000 C   0  0  0  0  0  0  0  0  0  0  0  0
    3.7321    1.0000    0.0000 C   0  0  0  0  0  0  0  0  0  0  0  0
    8.9282   -1.0000    0.0000 C   0  0  0  0  0  0  0  0  0  0  0  0
    4.5981    2.5000    0.0000 C   0  0  0  0  0  0  0  0  0  0  0  0
    8.0622   -2.5000    0.0000 C   0  0  0  0  0  0  0  0  0  0  0  0
    5.4641    1.0000    0.0000 C   0  0  0  0  0  0  0  0  0  0  0  0
    7.1962   -1.0000    0.0000 C   0  0  0  0  0  0  0  0  0  0  0  0
    6.3301    0.5000    0.0000 C   0  0  0  0  0  0  0  0  0  0  0  0
    6.3301   -0.5000    0.0000 C   0  0  0  0  0  0  0  0  0  0  0  0
    3.7321    2.0000    0.0000 C   0  0  0  0  0  0  0  0  0  0  0  0
    8.9282   -2.0000    0.0000 C   0  0  0  0  0  0  0  0  0  0  0  0
    4.5981    0.5000    0.0000 C   0  0  0  0  0  0  0  0  0  0  0  0
    8.0622   -0.5000    0.0000 C   0  0  0  0  0  0  0  0  0  0  0  0
    5.4641    2.0000    0.0000 C   0  0  0  0  0  0  0  0  0  0  0  0
    7.1962   -2.0000    0.0000 C   0  0  0  0  0  0  0  0  0  0  0  0
    2.0000    0.0000    0.0000 C   0  0  0  0  0  0  0  0  0  0  0  0
    3.3660   -0.3660    0.0000 C   0  0  0  0  0  0  0  0  0  0  0  0
    2.3660    1.3660    0.0000 C   0  0  0  0  0  0  0  0  0  0  0  0
   10.6603   -0.0000    0.0000 C   0  0  0  0  0  0  0  0  0  0  0  0
    9.2942    0.3660    0.0000 C   0  0  0  0  0  0  0  0  0  0  0  0
   10.2942   -1.3660    0.0000 C   0  0  0  0  0  0  0  0  0  0  0  0
    4.5981    4.5000    0.0000 C   0  0  0  0  0  0  0  0  0  0  0  0
    5.5981    3.5000    0.0000 C   0  0  0  0  0  0  0  0  0  0  0  0
    3.5981    3.5000    0.0000 C   0  0  0  0  0  0  0  0  0  0  0  0
    8.0622   -4.5000    0.0000 C   0  0  0  0  0  0  0  0  0  0  0  0
    7.0622   -3.5000    0.0000 C   0  0  0  0  0  0  0  0  0  0  0  0
    9.0622   -3.5000    0.0000 C   0  0  0  0  0  0  0  0  0  0  0  0
    6.9407    0.3923    0.0000 H   0  0  0  0  0  0  0  0  0  0  0  0
    6.5422    1.0826    0.0000 H   0  0  0  0  0  0  0  0  0  0  0  0
    5.7196   -0.3923    0.0000 H   0  0  0  0  0  0  0  0  0  0  0  0
    6.1181   -1.0826    0.0000 H   0  0  0  0  0  0  0  0  0  0  0  0
    4.5981   -0.1200    0.0000 H   0  0  0  0  0  0  0  0  0  0  0  0
    8.0622    0.1200    0.0000 H   0  0  0  0  0  0  0  0  0  0  0  0
    6.0010    2.3100    0.0000 H   0  0  0  0  0  0  0  0  0  0  0  0
    6.6592   -2.3100    0.0000 H   0  0  0  0  0  0  0  0  0  0  0  0
    1.6900    0.5369    0.0000 H   0  0  0  0  0  0  0  0  0  0  0  0
    1.4631   -0.3100    0.0000 H   0  0  0  0  0  0  0  0  0  0  0  0
    2.3100   -0.5369    0.0000 H   0  0  0  0  0  0  0  0  0  0  0  0
    2.8291   -0.6760    0.0000 H   0  0  0  0  0  0  0  0  0  0  0  0
    3.6760   -0.9030    0.0000 H   0  0  0  0  0  0  0  0  0  0  0  0
    3.9030   -0.0560    0.0000 H   0  0  0  0  0  0  0  0  0  0  0  0
    2.9030    1.6760    0.0000 H   0  0  0  0  0  0  0  0  0  0  0  0
    2.0560    1.9030    0.0000 H   0  0  0  0  0  0  0  0  0  0  0  0
    1.8291    1.0560    0.0000 H   0  0  0  0  0  0  0  0  0  0  0  0
   10.9703   -0.5369    0.0000 H   0  0  0  0  0  0  0  0  0  0  0  0
   11.1972    0.3100    0.0000 H   0  0  0  0  0  0  0  0  0  0  0  0
   10.3503    0.5369    0.0000 H   0  0  0  0  0  0  0  0  0  0  0  0
    9.8312    0.6760    0.0000 H   0  0  0  0  0  0  0  0  0  0  0  0
    8.9842    0.9030    0.0000 H   0  0  0  0  0  0  0  0  0  0  0  0
    8.7573    0.0560    0.0000 H   0  0  0  0  0  0  0  0  0  0  0  0
    9.7573   -1.6760    0.0000 H   0  0  0  0  0  0  0  0  0  0  0  0
   10.6042   -1.9030    0.0000 H   0  0  0  0  0  0  0  0  0  0  0  0
   10.8312   -1.0560    0.0000 H   0  0  0  0  0  0  0  0  0  0  0  0
    5.2181    4.5000    0.0000 H   0  0  0  0  0  0  0  0  0  0  0  0
    4.5981    5.1200    0.0000 H   0  0  0  0  0  0  0  0  0  0  0  0
    3.9781    4.5000    0.0000 H   0  0  0  0  0  0  0  0  0  0  0  0
    5.5981    2.8800    0.0000 H   0  0  0  0  0  0  0  0  0  0  0  0
    6.2181    3.5000    0.0000 H   0  0  0  0  0  0  0  0  0  0  0  0
    5.5981    4.1200    0.0000 H   0  0  0  0  0  0  0  0  0  0  0  0
    3.5981    4.1200    0.0000 H   0  0  0  0  0  0  0  0  0  0  0  0
    2.9781    3.5000    0.0000 H   0  0  0  0  0  0  0  0  0  0  0  0
    3.5981    2.8800    0.0000 H   0  0  0  0  0  0  0  0  0  0  0  0
    7.4422   -4.5000    0.0000 H   0  0  0  0  0  0  0  0  0  0  0  0
    8.0622   -5.1200    0.0000 H   0  0  0  0  0  0  0  0  0  0  0  0
    8.6822   -4.5000    0.0000 H   0  0  0  0  0  0  0  0  0  0  0  0
    7.0622   -2.8800    0.0000 H   0  0  0  0  0  0  0  0  0  0  0  0
    6.4422   -3.5000    0.0000 H   0  0  0  0  0  0  0  0  0  0  0  0
    7.0622   -4.1200    0.0000 H   0  0  0  0  0  0  0  0  0  0  0  0
    9.0622   -4.1200    0.0000 H   0  0  0  0  0  0  0  0  0  0  0  0
    9.6822   -3.5000    0.0000 H   0  0  0  0  0  0  0  0  0  0  0  0
    9.0622   -2.8800    0.0000 H   0  0  0  0  0  0  0  0  0  0  0  0
    2.8660    3.1200    0.0000 H   0  0  0  0  0  0  0  0  0  0  0  0
    9.7942   -3.1200    0.0000 H   0  0  0  0  0  0  0  0  0  0  0  0
  1 15  1  0  0  0  0
  1 77  1  0  0  0  0
  2 16  1  0  0  0  0
  2 78  1  0  0  0  0
  3  7  1  0  0  0  0
  3 21  1  0  0  0  0
  3 22  1  0  0  0  0
  3 23  1  0  0  0  0
  4  8  1  0  0  0  0
  4 24  1  0  0  0  0
  4 25  1  0  0  0  0
  4 26  1  0  0  0  0
  5  9  1  0  0  0  0
  5 27  1  0  0  0  0
  5 28  1  0  0  0  0
  5 29  1  0  0  0  0
  6 10  1  0  0  0  0
  6 30  1  0  0  0  0
  6 31  1  0  0  0  0
  6 32  1  0  0  0  0
  7 15  2  0  0  0  0
  7 17  1  0  0  0  0
  8 16  2  0  0  0  0
  8 18  1  0  0  0  0
  9 15  1  0  0  0  0
  9 19  2  0  0  0  0
 10 16  1  0  0  0  0
 10 20  2  0  0  0  0
 11 13  1  0  0  0  0
 11 17  2  0  0  0  0
 11 19  1  0  0  0  0
 12 14  1  0  0  0  0
 12 18  2  0  0  0  0
 12 20  1  0  0  0  0
 13 14  1  0  0  0  0
 13 33  1  0  0  0  0
 13 34  1  0  0  0  0
 14 35  1  0  0  0  0
 14 36  1  0  0  0  0
 17 37  1  0  0  0  0
 18 38  1  0  0  0  0
 19 39  1  0  0  0  0
 20 40  1  0  0  0  0
 21 41  1  0  0  0  0
 21 42  1  0  0  0  0
 21 43  1  0  0  0  0
 22 44  1  0  0  0  0
 22 45  1  0  0  0  0
 22 46  1  0  0  0  0
 23 47  1  0  0  0  0
 23 48  1  0  0  0  0
 23 49  1  0  0  0  0
 24 50  1  0  0  0  0
 24 51  1  0  0  0  0
 24 52  1  0  0  0  0
 25 53  1  0  0  0  0
 25 54  1  0  0  0  0
 25 55  1  0  0  0  0
 26 56  1  0  0  0  0
 26 57  1  0  0  0  0
 26 58  1  0  0  0  0
 27 59  1  0  0  0  0
 27 60  1  0  0  0  0
 27 61  1  0  0  0  0
 28 62  1  0  0  0  0
 28 63  1  0  0  0  0
 28 64  1  0  0  0  0
 29 65  1  0  0  0  0
 29 66  1  0  0  0  0
 29 67  1  0  0  0  0
 30 68  1  0  0  0  0
 30 69  1  0  0  0  0
 30 70  1  0  0  0  0
 31 71  1  0  0  0  0
 31 72  1  0  0  0  0
 31 73  1  0  0  0  0
 32 74  1  0  0  0  0
 32 75  1  0  0  0  0
 32 76  1  0  0  0  0
M  END
> <PUBCHEM_COMPOUND_CID>
164847

> <PUBCHEM_COMPOUND_CANONICALIZED>
1

> <PUBCHEM_CACTVS_COMPLEXITY>
492

> <PUBCHEM_CACTVS_HBOND_ACCEPTOR>
2

> <PUBCHEM_CACTVS_HBOND_DONOR>
2

> <PUBCHEM_CACTVS_ROTATABLE_BOND>
7

> <PUBCHEM_CACTVS_SUBSKEYS>
AAADcfB4MAAAAAAAAAAAAAAAAAAAAAAAAAAwYAAAAAAAAAABQAAAGgAACAAADgSAmAAyBoAAAgCAAiBCAAACAAAgIAAAiAAECIgIJiKCERKAcAAkwBEImAeAwOAPoAACAAAIAABAAAQAABAAAAAAAAAAAA==

> <PUBCHEM_IUPAC_OPENEYE_NAME>
2,6-ditert-butyl-4-[2-(3,5-ditert-butyl-4-hydroxy-phenyl)ethyl]phenol

> <PUBCHEM_IUPAC_CAS_NAME>
2,6-ditert-butyl-4-[2-(3,5-ditert-butyl-4-hydroxyphenyl)ethyl]phenol

> <PUBCHEM_IUPAC_NAME_MARKUP>
2,6-di<I>tert</I>-butyl-4-[2-(3,5-di<I>tert</I>-butyl-4-hydroxyphenyl)ethyl]phenol

> <PUBCHEM_IUPAC_NAME>
2,6-ditert-butyl-4-[2-(3,5-ditert-butyl-4-hydroxyphenyl)ethyl]phenol

> <PUBCHEM_IUPAC_SYSTEMATIC_NAME>
2,6-ditert-butyl-4-[2-(3,5-ditert-butyl-4-oxidanyl-phenyl)ethyl]phenol

> <PUBCHEM_IUPAC_TRADITIONAL_NAME>
2,6-ditert-butyl-4-[2-(3,5-ditert-butyl-4-hydroxy-phenyl)ethyl]phenol

> <PUBCHEM_IUPAC_INCHI>
InChI=1S/C30H46O2/c1-27(2,3)21-15-19(16-22(25(21)31)28(4,5)6)13-14-20-17-23(29(7,8)9)26(32)24(18-20)30(10,11)12/h15-18,31-32H,13-14H2,1-12H3

> <PUBCHEM_IUPAC_INCHIKEY>
LRRMGPGVHYPBPL-UHFFFAOYSA-N

> <PUBCHEM_XLOGP3_AA>
10.1

> <PUBCHEM_EXACT_MASS>
438.349780706

> <PUBCHEM_MOLECULAR_FORMULA>
C30H46O2

> <PUBCHEM_MOLECULAR_WEIGHT>
438.7

> <PUBCHEM_SMILES>
CC(C)(C)C1=CC(=CC(=C1O)C(C)(C)C)CCC2=CC(=C(C(=C2)C(C)(C)C)O)C(C)(C)C

> <PUBCHEM_CONNECTIVITY_SMILES>
CC(C)(C)C1=CC(=CC(=C1O)C(C)(C)C)CCC2=CC(=C(C(=C2)C(C)(C)C)O)C(C)(C)C

> <PUBCHEM_CACTVS_TPSA>
40.5

> <PUBCHEM_MONOISOTOPIC_WEIGHT>
438.349780706

> <PUBCHEM_TOTAL_CHARGE>
0

> <PUBCHEM_HEAVY_ATOM_COUNT>
32

> <PUBCHEM_ATOM_DEF_STEREO_COUNT>
0

> <PUBCHEM_ATOM_UDEF_STEREO_COUNT>
0

> <PUBCHEM_BOND_DEF_STEREO_COUNT>
0

> <PUBCHEM_BOND_UDEF_STEREO_COUNT>
0

> <PUBCHEM_ISOTOPIC_ATOM_COUNT>
0

> <PUBCHEM_COMPONENT_COUNT>
1

> <PUBCHEM_CACTVS_TAUTO_COUNT>
-1

> <PUBCHEM_COORDINATE_TYPE>
1
5
255

> <PUBCHEM_BONDANNOTATIONS>
10  16  8
10  20  8
11  17  8
11  19  8
12  18  8
12  20  8
7  15  8
7  17  8
8  16  8
8  18  8
9  15  8
9  19  8

$$$$
