165362396
  -OEChem-05122608162D

 32 29  0     0  0  0  0  0  0999 V2000
    3.7320   -0.8170    0.0000 P   0  0  0  0  0  0  0  0  0  0  0  0
    2.0000   -0.8170    0.0000 Na  0  3  0  0  0  0  0  0  0  0  0  0
    3.7320   -2.5490    0.0000 Na  0  3  0  0  0  0  0  0  0  0  0  0
    8.4282    1.0490    0.0000 F   0  0  0  0  0  0  0  0  0  0  0  0
    9.4282   -0.6830    0.0000 F   0  0  0  0  0  0  0  0  0  0  0  0
    7.5622    0.5490    0.0000 F   0  0  0  0  0  0  0  0  0  0  0  0
    8.5622   -1.1830    0.0000 F   0  0  0  0  0  0  0  0  0  0  0  0
    9.2942    1.5490    0.0000 F   0  0  0  0  0  0  0  0  0  0  0  0
   10.2942   -0.1830    0.0000 F   0  0  0  0  0  0  0  0  0  0  0  0
    6.6962    0.0490    0.0000 F   0  0  0  0  0  0  0  0  0  0  0  0
    7.6962   -1.6830    0.0000 F   0  0  0  0  0  0  0  0  0  0  0  0
   11.1603    0.3170    0.0000 F   0  0  0  0  0  0  0  0  0  0  0  0
   10.1603    2.0490    0.0000 F   0  0  0  0  0  0  0  0  0  0  0  0
   12.3923    2.1830    0.0000 F   0  0  0  0  0  0  0  0  0  0  0  0
   12.0263    0.8170    0.0000 F   0  0  0  0  0  0  0  0  0  0  0  0
   11.0263    2.5490    0.0000 F   0  0  0  0  0  0  0  0  0  0  0  0
    4.5981   -1.3170    0.0000 O   0  0  0  0  0  0  0  0  0  0  0  0
    2.8660   -0.3170    0.0000 O   0  5  0  0  0  0  0  0  0  0  0  0
    3.2320   -1.6830    0.0000 O   0  5  0  0  0  0  0  0  0  0  0  0
    4.2320    0.0490    0.0000 O   0  0  0  0  0  0  0  0  0  0  0  0
    8.9282    0.1830    0.0000 C   0  0  0  0  0  0  0  0  0  0  0  0
    8.0622   -0.3170    0.0000 C   0  0  0  0  0  0  0  0  0  0  0  0
    9.7942    0.6830    0.0000 C   0  0  0  0  0  0  0  0  0  0  0  0
    7.1962   -0.8170    0.0000 C   0  0  0  0  0  0  0  0  0  0  0  0
   10.6603    1.1830    0.0000 C   0  0  0  0  0  0  0  0  0  0  0  0
    6.3301   -1.3170    0.0000 C   0  0  0  0  0  0  0  0  0  0  0  0
    5.4641   -0.8170    0.0000 C   0  0  0  0  0  0  0  0  0  0  0  0
   11.5263    1.6830    0.0000 C   0  0  0  0  0  0  0  0  0  0  0  0
    5.9316   -1.7919    0.0000 H   0  0  0  0  0  0  0  0  0  0  0  0
    6.7287   -1.7919    0.0000 H   0  0  0  0  0  0  0  0  0  0  0  0
    5.8626   -0.3420    0.0000 H   0  0  0  0  0  0  0  0  0  0  0  0
    5.0656   -0.3420    0.0000 H   0  0  0  0  0  0  0  0  0  0  0  0
  1 17  1  0  0  0  0
  1 18  1  0  0  0  0
  1 19  1  0  0  0  0
  1 20  2  0  0  0  0
  4 21  1  0  0  0  0
  5 21  1  0  0  0  0
  6 22  1  0  0  0  0
  7 22  1  0  0  0  0
  8 23  1  0  0  0  0
  9 23  1  0  0  0  0
 10 24  1  0  0  0  0
 11 24  1  0  0  0  0
 12 25  1  0  0  0  0
 13 25  1  0  0  0  0
 14 28  1  0  0  0  0
 15 28  1  0  0  0  0
 16 28  1  0  0  0  0
 17 27  1  0  0  0  0
 21 22  1  0  0  0  0
 21 23  1  0  0  0  0
 22 24  1  0  0  0  0
 23 25  1  0  0  0  0
 24 26  1  0  0  0  0
 25 28  1  0  0  0  0
 26 27  1  0  0  0  0
 26 29  1  0  0  0  0
 26 30  1  0  0  0  0
 27 31  1  0  0  0  0
 27 32  1  0  0  0  0
M  CHG  4   2   1   3   1  18  -1  19  -1
M  END
> <PUBCHEM_COMPOUND_CID>
165362396

> <PUBCHEM_COMPOUND_CANONICALIZED>
1

> <PUBCHEM_CACTVS_COMPLEXITY>
539

> <PUBCHEM_CACTVS_HBOND_ACCEPTOR>
17

> <PUBCHEM_CACTVS_HBOND_DONOR>
0

> <PUBCHEM_CACTVS_ROTATABLE_BOND>
7

> <PUBCHEM_CACTVS_SUBSKEYS>
AAADcYBwOfIAAAAAAAAAAAAAAAAAAAAAAAAAAAAAAAAAAAAAAAAAGwAAACAACACggBIAAAAAARAAQAAAAIAAAAAAAAAAAAAAAAAAAAIAAAAAAAAEAAAAAAGAwKAAAAAAAAAAAAAAAAAAAAAAAAAAAAAAAA==

> <PUBCHEM_IUPAC_OPENEYE_NAME>
disodium;3,3,4,4,5,5,6,6,7,7,8,8,8-tridecafluorooctyl phosphate

> <PUBCHEM_IUPAC_CAS_NAME>
disodium;3,3,4,4,5,5,6,6,7,7,8,8,8-tridecafluorooctyl phosphate

> <PUBCHEM_IUPAC_NAME_MARKUP>
disodium;3,3,4,4,5,5,6,6,7,7,8,8,8-tridecafluorooctyl phosphate

> <PUBCHEM_IUPAC_NAME>
disodium;3,3,4,4,5,5,6,6,7,7,8,8,8-tridecafluorooctyl phosphate

> <PUBCHEM_IUPAC_SYSTEMATIC_NAME>
disodium;3,3,4,4,5,5,6,6,7,7,8,8,8-tridecakis(fluoranyl)octyl phosphate

> <PUBCHEM_IUPAC_TRADITIONAL_NAME>
disodium;3,3,4,4,5,5,6,6,7,7,8,8,8-tridecafluorooctyl phosphate

> <PUBCHEM_IUPAC_INCHI>
InChI=1S/C8H6F13O4P.2Na/c9-3(10,1-2-25-26(22,23)24)4(11,12)5(13,14)6(15,16)7(17,18)8(19,20)21;;/h1-2H2,(H2,22,23,24);;/q;2*+1/p-2

> <PUBCHEM_IUPAC_INCHIKEY>
QCFJTAJWCSBPRJ-UHFFFAOYSA-L

> <PUBCHEM_EXACT_MASS>
487.9435003

> <PUBCHEM_MOLECULAR_FORMULA>
C8H4F13Na2O4P

> <PUBCHEM_MOLECULAR_WEIGHT>
488.05

> <PUBCHEM_SMILES>
C(COP(=O)([O-])[O-])C(C(C(C(C(C(F)(F)F)(F)F)(F)F)(F)F)(F)F)(F)F.[Na+].[Na+]

> <PUBCHEM_CONNECTIVITY_SMILES>
C(COP(=O)([O-])[O-])C(C(C(C(C(C(F)(F)F)(F)F)(F)F)(F)F)(F)F)(F)F.[Na+].[Na+]

> <PUBCHEM_CACTVS_TPSA>
72.4

> <PUBCHEM_MONOISOTOPIC_WEIGHT>
487.9435003

> <PUBCHEM_TOTAL_CHARGE>
0

> <PUBCHEM_HEAVY_ATOM_COUNT>
28

> <PUBCHEM_ATOM_DEF_STEREO_COUNT>
0

> <PUBCHEM_ATOM_UDEF_STEREO_COUNT>
0

> <PUBCHEM_BOND_DEF_STEREO_COUNT>
0

> <PUBCHEM_BOND_UDEF_STEREO_COUNT>
0

> <PUBCHEM_ISOTOPIC_ATOM_COUNT>
0

> <PUBCHEM_COMPONENT_COUNT>
3

> <PUBCHEM_CACTVS_TAUTO_COUNT>
-1

> <PUBCHEM_COORDINATE_TYPE>
1
5
255

$$$$
