16732
  -OEChem-05122608282D

 27 28  0     0  0  0  0  0  0999 V2000
    4.5981   -0.0000    0.0000 C   0  0  0  0  0  0  0  0  0  0  0  0
    4.5981    1.0000    0.0000 C   0  0  0  0  0  0  0  0  0  0  0  0
    2.8660   -0.0000    0.0000 C   0  0  0  0  0  0  0  0  0  0  0  0
    2.8660    1.0000    0.0000 C   0  0  0  0  0  0  0  0  0  0  0  0
    5.4920   -0.5347    0.0000 C   0  0  0  0  0  0  0  0  0  0  0  0
    3.7321   -0.5000    0.0000 C   0  0  0  0  0  0  0  0  0  0  0  0
    3.7321    1.5000    0.0000 C   0  0  0  0  0  0  0  0  0  0  0  0
    5.4920    1.5346    0.0000 C   0  0  0  0  0  0  0  0  0  0  0  0
    6.3981   -0.0208    0.0000 C   0  0  0  0  0  0  0  0  0  0  0  0
    2.0000   -0.5000    0.0000 C   0  0  0  0  0  0  0  0  0  0  0  0
    2.0000    1.5000    0.0000 C   0  0  0  0  0  0  0  0  0  0  0  0
    6.3981    1.0208    0.0000 C   0  0  0  0  0  0  0  0  0  0  0  0
    5.4805   -1.5346    0.0000 C   0  0  0  0  0  0  0  0  0  0  0  0
    3.7321   -1.1200    0.0000 H   0  0  0  0  0  0  0  0  0  0  0  0
    3.7321    2.1200    0.0000 H   0  0  0  0  0  0  0  0  0  0  0  0
    5.4849    2.1546    0.0000 H   0  0  0  0  0  0  0  0  0  0  0  0
    6.9338   -0.3329    0.0000 H   0  0  0  0  0  0  0  0  0  0  0  0
    1.6900    0.0369    0.0000 H   0  0  0  0  0  0  0  0  0  0  0  0
    1.4631   -0.8100    0.0000 H   0  0  0  0  0  0  0  0  0  0  0  0
    2.3100   -1.0370    0.0000 H   0  0  0  0  0  0  0  0  0  0  0  0
    2.3100    2.0369    0.0000 H   0  0  0  0  0  0  0  0  0  0  0  0
    1.4631    1.8100    0.0000 H   0  0  0  0  0  0  0  0  0  0  0  0
    1.6900    0.9630    0.0000 H   0  0  0  0  0  0  0  0  0  0  0  0
    6.9338    1.3329    0.0000 H   0  0  0  0  0  0  0  0  0  0  0  0
    4.8605   -1.5275    0.0000 H   0  0  0  0  0  0  0  0  0  0  0  0
    5.4733   -2.1546    0.0000 H   0  0  0  0  0  0  0  0  0  0  0  0
    6.1004   -1.5418    0.0000 H   0  0  0  0  0  0  0  0  0  0  0  0
  1  2  1  0  0  0  0
  1  5  2  0  0  0  0
  1  6  1  0  0  0  0
  2  7  1  0  0  0  0
  2  8  2  0  0  0  0
  3  4  1  0  0  0  0
  3  6  2  0  0  0  0
  3 10  1  0  0  0  0
  4  7  2  0  0  0  0
  4 11  1  0  0  0  0
  5  9  1  0  0  0  0
  5 13  1  0  0  0  0
  6 14  1  0  0  0  0
  7 15  1  0  0  0  0
  8 12  1  0  0  0  0
  8 16  1  0  0  0  0
  9 12  2  0  0  0  0
  9 17  1  0  0  0  0
 10 18  1  0  0  0  0
 10 19  1  0  0  0  0
 10 20  1  0  0  0  0
 11 21  1  0  0  0  0
 11 22  1  0  0  0  0
 11 23  1  0  0  0  0
 12 24  1  0  0  0  0
 13 25  1  0  0  0  0
 13 26  1  0  0  0  0
 13 27  1  0  0  0  0
M  END
> <PUBCHEM_COMPOUND_CID>
16732

> <PUBCHEM_COMPOUND_CANONICALIZED>
1

> <PUBCHEM_CACTVS_COMPLEXITY>
173

> <PUBCHEM_CACTVS_HBOND_ACCEPTOR>
0

> <PUBCHEM_CACTVS_HBOND_DONOR>
0

> <PUBCHEM_CACTVS_ROTATABLE_BOND>
0

> <PUBCHEM_CACTVS_SUBSKEYS>
AAADccBwAAAAAAAAAAAAAAAAAAAAAAAAAAAwYAAAAAAAAADBUAAAGAAAAAAADACAGAAyAMAAAACAAiBCAAACAAAgAAAIiAAAAIgIICKAERCAIAAggAAIiAcAgMAOwAACAAAQAACAAAQAACAAAAAAAAAAAA==

> <PUBCHEM_IUPAC_OPENEYE_NAME>
1,6,7-trimethylnaphthalene

> <PUBCHEM_IUPAC_CAS_NAME>
1,6,7-trimethylnaphthalene

> <PUBCHEM_IUPAC_NAME_MARKUP>
1,6,7-trimethylnaphthalene

> <PUBCHEM_IUPAC_NAME>
1,6,7-trimethylnaphthalene

> <PUBCHEM_IUPAC_SYSTEMATIC_NAME>
1,6,7-trimethylnaphthalene

> <PUBCHEM_IUPAC_TRADITIONAL_NAME>
1,6,7-trimethylnaphthalene

> <PUBCHEM_IUPAC_INCHI>
InChI=1S/C13H14/c1-9-5-4-6-12-7-10(2)11(3)8-13(9)12/h4-8H,1-3H3

> <PUBCHEM_IUPAC_INCHIKEY>
JBXULKRNHAQMAS-UHFFFAOYSA-N

> <PUBCHEM_XLOGP3>
4.8

> <PUBCHEM_EXACT_MASS>
170.109550447

> <PUBCHEM_MOLECULAR_FORMULA>
C13H14

> <PUBCHEM_MOLECULAR_WEIGHT>
170.25

> <PUBCHEM_SMILES>
CC1=C2C=C(C(=CC2=CC=C1)C)C

> <PUBCHEM_CONNECTIVITY_SMILES>
CC1=C2C=C(C(=CC2=CC=C1)C)C

> <PUBCHEM_CACTVS_TPSA>
0

> <PUBCHEM_MONOISOTOPIC_WEIGHT>
170.109550447

> <PUBCHEM_TOTAL_CHARGE>
0

> <PUBCHEM_HEAVY_ATOM_COUNT>
13

> <PUBCHEM_ATOM_DEF_STEREO_COUNT>
0

> <PUBCHEM_ATOM_UDEF_STEREO_COUNT>
0

> <PUBCHEM_BOND_DEF_STEREO_COUNT>
0

> <PUBCHEM_BOND_UDEF_STEREO_COUNT>
0

> <PUBCHEM_ISOTOPIC_ATOM_COUNT>
0

> <PUBCHEM_COMPONENT_COUNT>
1

> <PUBCHEM_CACTVS_TAUTO_COUNT>
-1

> <PUBCHEM_COORDINATE_TYPE>
1
5
255

> <PUBCHEM_BONDANNOTATIONS>
1  2  8
1  5  8
1  6  8
2  7  8
2  8  8
3  4  8
3  6  8
4  7  8
5  9  8
8  12  8
9  12  8

$$$$
