167547
  -OEChem-05122608192D

 56 55  0     0  0  0  0  0  0999 V2000
    9.2942    0.5490    0.0000 F   0  0  0  0  0  0  0  0  0  0  0  0
   10.2942   -1.1830    0.0000 F   0  0  0  0  0  0  0  0  0  0  0  0
   10.1603    1.0490    0.0000 F   0  0  0  0  0  0  0  0  0  0  0  0
   11.1603   -0.6830    0.0000 F   0  0  0  0  0  0  0  0  0  0  0  0
    8.4282    0.0490    0.0000 F   0  0  0  0  0  0  0  0  0  0  0  0
    9.4282   -1.6830    0.0000 F   0  0  0  0  0  0  0  0  0  0  0  0
   12.0263   -0.1830    0.0000 F   0  0  0  0  0  0  0  0  0  0  0  0
   11.0263    1.5490    0.0000 F   0  0  0  0  0  0  0  0  0  0  0  0
    7.5622   -0.4510    0.0000 F   0  0  0  0  0  0  0  0  0  0  0  0
    8.5622   -2.1830    0.0000 F   0  0  0  0  0  0  0  0  0  0  0  0
   12.8923    0.3170    0.0000 F   0  0  0  0  0  0  0  0  0  0  0  0
   11.8923    2.0490    0.0000 F   0  0  0  0  0  0  0  0  0  0  0  0
    6.6962   -0.9510    0.0000 F   0  0  0  0  0  0  0  0  0  0  0  0
    7.6962   -2.6830    0.0000 F   0  0  0  0  0  0  0  0  0  0  0  0
   13.7583    0.8170    0.0000 F   0  0  0  0  0  0  0  0  0  0  0  0
   12.7583    2.5490    0.0000 F   0  0  0  0  0  0  0  0  0  0  0  0
    5.8301   -1.4510    0.0000 F   0  0  0  0  0  0  0  0  0  0  0  0
    6.8301   -3.1830    0.0000 F   0  0  0  0  0  0  0  0  0  0  0  0
   14.6244    1.3170    0.0000 F   0  0  0  0  0  0  0  0  0  0  0  0
   13.6244    3.0490    0.0000 F   0  0  0  0  0  0  0  0  0  0  0  0
    4.9641   -1.9510    0.0000 F   0  0  0  0  0  0  0  0  0  0  0  0
    5.9641   -3.6830    0.0000 F   0  0  0  0  0  0  0  0  0  0  0  0
   15.4904    1.8170    0.0000 F   0  0  0  0  0  0  0  0  0  0  0  0
   14.4904    3.5490    0.0000 F   0  0  0  0  0  0  0  0  0  0  0  0
    4.0981   -2.4510    0.0000 F   0  0  0  0  0  0  0  0  0  0  0  0
    5.0981   -4.1830    0.0000 F   0  0  0  0  0  0  0  0  0  0  0  0
   16.3564    2.3170    0.0000 F   0  0  0  0  0  0  0  0  0  0  0  0
   15.3564    4.0490    0.0000 F   0  0  0  0  0  0  0  0  0  0  0  0
    3.2321   -2.9510    0.0000 F   0  0  0  0  0  0  0  0  0  0  0  0
    4.2321   -4.6830    0.0000 F   0  0  0  0  0  0  0  0  0  0  0  0
   17.2224    2.8170    0.0000 F   0  0  0  0  0  0  0  0  0  0  0  0
   16.2224    4.5490    0.0000 F   0  0  0  0  0  0  0  0  0  0  0  0
    2.0000   -4.8170    0.0000 F   0  0  0  0  0  0  0  0  0  0  0  0
    2.3660   -3.4510    0.0000 F   0  0  0  0  0  0  0  0  0  0  0  0
    3.3660   -5.1830    0.0000 F   0  0  0  0  0  0  0  0  0  0  0  0
   18.4545    3.6830    0.0000 O   0  0  0  0  0  0  0  0  0  0  0  0
   17.5885    5.1830    0.0000 O   0  0  0  0  0  0  0  0  0  0  0  0
    9.7942   -0.3170    0.0000 C   0  0  0  0  0  0  0  0  0  0  0  0
   10.6603    0.1830    0.0000 C   0  0  0  0  0  0  0  0  0  0  0  0
    8.9282   -0.8170    0.0000 C   0  0  0  0  0  0  0  0  0  0  0  0
   11.5263    0.6830    0.0000 C   0  0  0  0  0  0  0  0  0  0  0  0
    8.0622   -1.3170    0.0000 C   0  0  0  0  0  0  0  0  0  0  0  0
   12.3923    1.1830    0.0000 C   0  0  0  0  0  0  0  0  0  0  0  0
    7.1962   -1.8170    0.0000 C   0  0  0  0  0  0  0  0  0  0  0  0
   13.2583    1.6830    0.0000 C   0  0  0  0  0  0  0  0  0  0  0  0
    6.3301   -2.3170    0.0000 C   0  0  0  0  0  0  0  0  0  0  0  0
   14.1244    2.1830    0.0000 C   0  0  0  0  0  0  0  0  0  0  0  0
    5.4641   -2.8170    0.0000 C   0  0  0  0  0  0  0  0  0  0  0  0
   14.9904    2.6830    0.0000 C   0  0  0  0  0  0  0  0  0  0  0  0
    4.5981   -3.3170    0.0000 C   0  0  0  0  0  0  0  0  0  0  0  0
   15.8564    3.1830    0.0000 C   0  0  0  0  0  0  0  0  0  0  0  0
    3.7321   -3.8170    0.0000 C   0  0  0  0  0  0  0  0  0  0  0  0
   16.7224    3.6830    0.0000 C   0  0  0  0  0  0  0  0  0  0  0  0
    2.8660   -4.3170    0.0000 C   0  0  0  0  0  0  0  0  0  0  0  0
   17.5885    4.1830    0.0000 C   0  0  0  0  0  0  0  0  0  0  0  0
   18.9914    3.9930    0.0000 H   0  0  0  0  0  0  0  0  0  0  0  0
  1 38  1  0  0  0  0
  2 38  1  0  0  0  0
  3 39  1  0  0  0  0
  4 39  1  0  0  0  0
  5 40  1  0  0  0  0
  6 40  1  0  0  0  0
  7 41  1  0  0  0  0
  8 41  1  0  0  0  0
  9 42  1  0  0  0  0
 10 42  1  0  0  0  0
 11 43  1  0  0  0  0
 12 43  1  0  0  0  0
 13 44  1  0  0  0  0
 14 44  1  0  0  0  0
 15 45  1  0  0  0  0
 16 45  1  0  0  0  0
 17 46  1  0  0  0  0
 18 46  1  0  0  0  0
 19 47  1  0  0  0  0
 20 47  1  0  0  0  0
 21 48  1  0  0  0  0
 22 48  1  0  0  0  0
 23 49  1  0  0  0  0
 24 49  1  0  0  0  0
 25 50  1  0  0  0  0
 26 50  1  0  0  0  0
 27 51  1  0  0  0  0
 28 51  1  0  0  0  0
 29 52  1  0  0  0  0
 30 52  1  0  0  0  0
 31 53  1  0  0  0  0
 32 53  1  0  0  0  0
 33 54  1  0  0  0  0
 34 54  1  0  0  0  0
 35 54  1  0  0  0  0
 36 55  1  0  0  0  0
 36 56  1  0  0  0  0
 37 55  2  0  0  0  0
 38 39  1  0  0  0  0
 38 40  1  0  0  0  0
 39 41  1  0  0  0  0
 40 42  1  0  0  0  0
 41 43  1  0  0  0  0
 42 44  1  0  0  0  0
 43 45  1  0  0  0  0
 44 46  1  0  0  0  0
 45 47  1  0  0  0  0
 46 48  1  0  0  0  0
 47 49  1  0  0  0  0
 48 50  1  0  0  0  0
 49 51  1  0  0  0  0
 50 52  1  0  0  0  0
 51 53  1  0  0  0  0
 52 54  1  0  0  0  0
 53 55  1  0  0  0  0
M  END
> <PUBCHEM_COMPOUND_CID>
167547

> <PUBCHEM_COMPOUND_CANONICALIZED>
1

> <PUBCHEM_CACTVS_COMPLEXITY>
1440

> <PUBCHEM_CACTVS_HBOND_ACCEPTOR>
37

> <PUBCHEM_CACTVS_HBOND_DONOR>
1

> <PUBCHEM_CACTVS_ROTATABLE_BOND>
16

> <PUBCHEM_CACTVS_SUBSKEYS>
AAADcQB4McAAAAAAAAAAAAAAAAAAAAAAAAAAAAAAAAAAAAAAAAAACwAACAAACAAAgBAACAAAAgAIAACQCAAAAAAAAAAAAAEAAAAAABIAAAAAQAAEAAAAAAGIyKCAAAAAAAAAAAAAAAAAAAAAAAAAAAAAAA==

> <PUBCHEM_IUPAC_OPENEYE_NAME>
2,2,3,3,4,4,5,5,6,6,7,7,8,8,9,9,10,10,11,11,12,12,13,13,14,14,15,15,16,16,17,17,18,18,18-pentatriacontafluorooctadecanoic acid

> <PUBCHEM_IUPAC_CAS_NAME>
2,2,3,3,4,4,5,5,6,6,7,7,8,8,9,9,10,10,11,11,12,12,13,13,14,14,15,15,16,16,17,17,18,18,18-pentatriacontafluorooctadecanoic acid

> <PUBCHEM_IUPAC_NAME_MARKUP>
2,2,3,3,4,4,5,5,6,6,7,7,8,8,9,9,10,10,11,11,12,12,13,13,14,14,15,15,16,16,17,17,18,18,18-pentatriacontafluorooctadecanoic acid

> <PUBCHEM_IUPAC_NAME>
2,2,3,3,4,4,5,5,6,6,7,7,8,8,9,9,10,10,11,11,12,12,13,13,14,14,15,15,16,16,17,17,18,18,18-pentatriacontafluorooctadecanoic acid

> <PUBCHEM_IUPAC_SYSTEMATIC_NAME>
2,2,3,3,4,4,5,5,6,6,7,7,8,8,9,9,10,10,11,11,12,12,13,13,14,14,15,15,16,16,17,17,18,18,18-pentatriacontakis(fluoranyl)octadecanoic acid

> <PUBCHEM_IUPAC_TRADITIONAL_NAME>
2,2,3,3,4,4,5,5,6,6,7,7,8,8,9,9,10,10,11,11,12,12,13,13,14,14,15,15,16,16,17,17,18,18,18-pentatriacontafluorostearic acid

> <PUBCHEM_IUPAC_INCHI>
InChI=1S/C18HF35O2/c19-2(20,1(54)55)3(21,22)4(23,24)5(25,26)6(27,28)7(29,30)8(31,32)9(33,34)10(35,36)11(37,38)12(39,40)13(41,42)14(43,44)15(45,46)16(47,48)17(49,50)18(51,52)53/h(H,54,55)

> <PUBCHEM_IUPAC_INCHIKEY>
ZTSDOGSKTICNPQ-UHFFFAOYSA-N

> <PUBCHEM_XLOGP3_AA>
11.6

> <PUBCHEM_EXACT_MASS>
913.9417649

> <PUBCHEM_MOLECULAR_FORMULA>
C18HF35O2

> <PUBCHEM_MOLECULAR_WEIGHT>
914.1

> <PUBCHEM_SMILES>
C(=O)(C(C(C(C(C(C(C(C(C(C(C(C(C(C(C(C(C(F)(F)F)(F)F)(F)F)(F)F)(F)F)(F)F)(F)F)(F)F)(F)F)(F)F)(F)F)(F)F)(F)F)(F)F)(F)F)(F)F)(F)F)O

> <PUBCHEM_CONNECTIVITY_SMILES>
C(=O)(C(C(C(C(C(C(C(C(C(C(C(C(C(C(C(C(C(F)(F)F)(F)F)(F)F)(F)F)(F)F)(F)F)(F)F)(F)F)(F)F)(F)F)(F)F)(F)F)(F)F)(F)F)(F)F)(F)F)(F)F)O

> <PUBCHEM_CACTVS_TPSA>
37.3

> <PUBCHEM_MONOISOTOPIC_WEIGHT>
913.9417649

> <PUBCHEM_TOTAL_CHARGE>
0

> <PUBCHEM_HEAVY_ATOM_COUNT>
55

> <PUBCHEM_ATOM_DEF_STEREO_COUNT>
0

> <PUBCHEM_ATOM_UDEF_STEREO_COUNT>
0

> <PUBCHEM_BOND_DEF_STEREO_COUNT>
0

> <PUBCHEM_BOND_UDEF_STEREO_COUNT>
0

> <PUBCHEM_ISOTOPIC_ATOM_COUNT>
0

> <PUBCHEM_COMPONENT_COUNT>
1

> <PUBCHEM_CACTVS_TAUTO_COUNT>
-1

> <PUBCHEM_COORDINATE_TYPE>
1
5
255

$$$$
