168116
  -OEChem-05122608132D

150150  0     0  0  0  0  0  0999 V2000
    5.5640   -2.2500    0.0000 Si  0  0  0  0  0  0  0  0  0  0  0  0
    3.8320   -2.2500    0.0000 Si  0  0  0  0  0  0  0  0  0  0  0  0
    7.2961   -2.2500    0.0000 Si  0  0  0  0  0  0  0  0  0  0  0  0
    2.9659   -0.7500    0.0000 Si  0  0  0  0  0  0  0  0  0  0  0  0
    9.0281   -2.2500    0.0000 Si  0  0  0  0  0  0  0  0  0  0  0  0
    4.6980   -0.7500    0.0000 Si  0  0  0  0  0  0  0  0  0  0  0  0
   10.7602   -2.2500    0.0000 Si  0  0  0  0  0  0  0  0  0  0  0  0
    6.4300   -0.7500    0.0000 Si  0  0  0  0  0  0  0  0  0  0  0  0
   11.6262   -0.7500    0.0000 Si  0  0  0  0  0  0  0  0  0  0  0  0
    7.2961    0.7500    0.0000 Si  0  0  0  0  0  0  0  0  0  0  0  0
   12.4922    0.7500    0.0000 Si  0  0  0  0  0  0  0  0  0  0  0  0
    8.1621    2.2500    0.0000 Si  0  0  0  0  0  0  0  0  0  0  0  0
   13.3582    2.2500    0.0000 Si  0  0  0  0  0  0  0  0  0  0  0  0
    9.8941    2.2500    0.0000 Si  0  0  0  0  0  0  0  0  0  0  0  0
   11.6262    2.2500    0.0000 Si  0  0  0  0  0  0  0  0  0  0  0  0
    4.6980   -1.7500    0.0000 O   0  0  0  0  0  0  0  0  0  0  0  0
    6.4300   -1.7500    0.0000 O   0  0  0  0  0  0  0  0  0  0  0  0
    2.9659   -1.7500    0.0000 O   0  0  0  0  0  0  0  0  0  0  0  0
    8.1621   -1.7500    0.0000 O   0  0  0  0  0  0  0  0  0  0  0  0
    3.8320   -0.2500    0.0000 O   0  0  0  0  0  0  0  0  0  0  0  0
    9.8941   -1.7500    0.0000 O   0  0  0  0  0  0  0  0  0  0  0  0
    5.5640   -0.2500    0.0000 O   0  0  0  0  0  0  0  0  0  0  0  0
   11.6262   -1.7500    0.0000 O   0  0  0  0  0  0  0  0  0  0  0  0
    7.2961   -0.2500    0.0000 O   0  0  0  0  0  0  0  0  0  0  0  0
   12.4922   -0.2500    0.0000 O   0  0  0  0  0  0  0  0  0  0  0  0
    8.1621    1.2500    0.0000 O   0  0  0  0  0  0  0  0  0  0  0  0
   13.3582    1.2500    0.0000 O   0  0  0  0  0  0  0  0  0  0  0  0
    9.0281    2.7500    0.0000 O   0  0  0  0  0  0  0  0  0  0  0  0
   12.4922    2.7500    0.0000 O   0  0  0  0  0  0  0  0  0  0  0  0
   10.7602    2.7500    0.0000 O   0  0  0  0  0  0  0  0  0  0  0  0
    4.9905   -3.0692    0.0000 C   0  0  0  0  0  0  0  0  0  0  0  0
    5.8228   -3.2159    0.0000 C   0  0  0  0  0  0  0  0  0  0  0  0
    3.1249   -2.9572    0.0000 C   0  0  0  0  0  0  0  0  0  0  0  0
    4.0908   -3.2159    0.0000 C   0  0  0  0  0  0  0  0  0  0  0  0
    7.8696   -3.0692    0.0000 C   0  0  0  0  0  0  0  0  0  0  0  0
    7.0372   -3.2159    0.0000 C   0  0  0  0  0  0  0  0  0  0  0  0
    2.0000   -1.0088    0.0000 C   0  0  0  0  0  0  0  0  0  0  0  0
    2.2588   -0.0429    0.0000 C   0  0  0  0  0  0  0  0  0  0  0  0
    9.6017   -3.0692    0.0000 C   0  0  0  0  0  0  0  0  0  0  0  0
    8.7693   -3.2159    0.0000 C   0  0  0  0  0  0  0  0  0  0  0  0
    3.7018   -0.8372    0.0000 C   0  0  0  0  0  0  0  0  0  0  0  0
    3.9909   -1.4571    0.0000 C   0  0  0  0  0  0  0  0  0  0  0  0
   11.4673   -2.9571    0.0000 C   0  0  0  0  0  0  0  0  0  0  0  0
   10.5013   -3.2159    0.0000 C   0  0  0  0  0  0  0  0  0  0  0  0
    7.3960   -1.0088    0.0000 C   0  0  0  0  0  0  0  0  0  0  0  0
    5.4641   -1.0089    0.0000 C   0  0  0  0  0  0  0  0  0  0  0  0
   10.6603   -1.0088    0.0000 C   0  0  0  0  0  0  0  0  0  0  0  0
   10.9191   -0.0429    0.0000 C   0  0  0  0  0  0  0  0  0  0  0  0
    6.8734    1.6563    0.0000 C   0  0  0  0  0  0  0  0  0  0  0  0
    6.3301    1.0088    0.0000 C   0  0  0  0  0  0  0  0  0  0  0  0
   11.5263    0.4912    0.0000 C   0  0  0  0  0  0  0  0  0  0  0  0
   11.7851    1.4571    0.0000 C   0  0  0  0  0  0  0  0  0  0  0  0
    7.9033    3.2159    0.0000 C   0  0  0  0  0  0  0  0  0  0  0  0
    7.1962    2.5088    0.0000 C   0  0  0  0  0  0  0  0  0  0  0  0
   14.3242    2.5088    0.0000 C   0  0  0  0  0  0  0  0  0  0  0  0
   13.6171    3.2159    0.0000 C   0  0  0  0  0  0  0  0  0  0  0  0
   10.1529    1.2841    0.0000 C   0  0  0  0  0  0  0  0  0  0  0  0
    9.1871    1.5428    0.0000 C   0  0  0  0  0  0  0  0  0  0  0  0
   10.9191    1.5428    0.0000 C   0  0  0  0  0  0  0  0  0  0  0  0
   12.5325    1.8274    0.0000 C   0  0  0  0  0  0  0  0  0  0  0  0
    4.4826   -2.7136    0.0000 H   0  0  0  0  0  0  0  0  0  0  0  0
    4.6349   -3.5771    0.0000 H   0  0  0  0  0  0  0  0  0  0  0  0
    5.4984   -3.4248    0.0000 H   0  0  0  0  0  0  0  0  0  0  0  0
    5.2240   -3.3764    0.0000 H   0  0  0  0  0  0  0  0  0  0  0  0
    5.9833   -3.8148    0.0000 H   0  0  0  0  0  0  0  0  0  0  0  0
    6.4217   -3.0555    0.0000 H   0  0  0  0  0  0  0  0  0  0  0  0
    2.6865   -2.5188    0.0000 H   0  0  0  0  0  0  0  0  0  0  0  0
    2.6865   -3.3956    0.0000 H   0  0  0  0  0  0  0  0  0  0  0  0
    3.5633   -3.3955    0.0000 H   0  0  0  0  0  0  0  0  0  0  0  0
    3.4919   -3.3764    0.0000 H   0  0  0  0  0  0  0  0  0  0  0  0
    4.2512   -3.8148    0.0000 H   0  0  0  0  0  0  0  0  0  0  0  0
    4.6896   -3.0555    0.0000 H   0  0  0  0  0  0  0  0  0  0  0  0
    7.3618   -3.4248    0.0000 H   0  0  0  0  0  0  0  0  0  0  0  0
    8.2253   -3.5770    0.0000 H   0  0  0  0  0  0  0  0  0  0  0  0
    8.3775   -2.7135    0.0000 H   0  0  0  0  0  0  0  0  0  0  0  0
    6.4384   -3.0555    0.0000 H   0  0  0  0  0  0  0  0  0  0  0  0
    6.8768   -3.8148    0.0000 H   0  0  0  0  0  0  0  0  0  0  0  0
    7.6361   -3.3764    0.0000 H   0  0  0  0  0  0  0  0  0  0  0  0
    1.8395   -0.4099    0.0000 H   0  0  0  0  0  0  0  0  0  0  0  0
    1.4011   -1.1693    0.0000 H   0  0  0  0  0  0  0  0  0  0  0  0
    2.1605   -1.6077    0.0000 H   0  0  0  0  0  0  0  0  0  0  0  0
    2.6972    0.3955    0.0000 H   0  0  0  0  0  0  0  0  0  0  0  0
    1.8204    0.3955    0.0000 H   0  0  0  0  0  0  0  0  0  0  0  0
    1.8204   -0.4813    0.0000 H   0  0  0  0  0  0  0  0  0  0  0  0
    9.0938   -3.4248    0.0000 H   0  0  0  0  0  0  0  0  0  0  0  0
    9.9573   -3.5770    0.0000 H   0  0  0  0  0  0  0  0  0  0  0  0
   10.1096   -2.7135    0.0000 H   0  0  0  0  0  0  0  0  0  0  0  0
    8.1704   -3.0555    0.0000 H   0  0  0  0  0  0  0  0  0  0  0  0
    8.6088   -3.8148    0.0000 H   0  0  0  0  0  0  0  0  0  0  0  0
    9.3682   -3.3764    0.0000 H   0  0  0  0  0  0  0  0  0  0  0  0
    3.6478   -0.2195    0.0000 H   0  0  0  0  0  0  0  0  0  0  0  0
    3.0841   -0.8912    0.0000 H   0  0  0  0  0  0  0  0  0  0  0  0
    3.7558   -1.4548    0.0000 H   0  0  0  0  0  0  0  0  0  0  0  0
    3.5525   -1.0187    0.0000 H   0  0  0  0  0  0  0  0  0  0  0  0
    3.5525   -1.8955    0.0000 H   0  0  0  0  0  0  0  0  0  0  0  0
    4.4293   -1.8955    0.0000 H   0  0  0  0  0  0  0  0  0  0  0  0
   11.0289   -3.3955    0.0000 H   0  0  0  0  0  0  0  0  0  0  0  0
   11.9057   -3.3955    0.0000 H   0  0  0  0  0  0  0  0  0  0  0  0
   11.9057   -2.5187    0.0000 H   0  0  0  0  0  0  0  0  0  0  0  0
    9.9025   -3.0555    0.0000 H   0  0  0  0  0  0  0  0  0  0  0  0
   10.3409   -3.8148    0.0000 H   0  0  0  0  0  0  0  0  0  0  0  0
   11.1002   -3.3764    0.0000 H   0  0  0  0  0  0  0  0  0  0  0  0
    7.2355   -1.6077    0.0000 H   0  0  0  0  0  0  0  0  0  0  0  0
    7.9948   -1.1693    0.0000 H   0  0  0  0  0  0  0  0  0  0  0  0
    7.5564   -0.4099    0.0000 H   0  0  0  0  0  0  0  0  0  0  0  0
    5.3036   -0.4100    0.0000 H   0  0  0  0  0  0  0  0  0  0  0  0
    4.8653   -1.1694    0.0000 H   0  0  0  0  0  0  0  0  0  0  0  0
    5.6246   -1.6078    0.0000 H   0  0  0  0  0  0  0  0  0  0  0  0
   10.4998   -0.4099    0.0000 H   0  0  0  0  0  0  0  0  0  0  0  0
   10.0614   -1.1693    0.0000 H   0  0  0  0  0  0  0  0  0  0  0  0
   10.8207   -1.6077    0.0000 H   0  0  0  0  0  0  0  0  0  0  0  0
   11.3575    0.3955    0.0000 H   0  0  0  0  0  0  0  0  0  0  0  0
   10.4807    0.3955    0.0000 H   0  0  0  0  0  0  0  0  0  0  0  0
   10.4807   -0.4813    0.0000 H   0  0  0  0  0  0  0  0  0  0  0  0
    7.4354    1.9183    0.0000 H   0  0  0  0  0  0  0  0  0  0  0  0
    6.6114    2.2182    0.0000 H   0  0  0  0  0  0  0  0  0  0  0  0
    6.3115    1.3943    0.0000 H   0  0  0  0  0  0  0  0  0  0  0  0
    6.4906    1.6077    0.0000 H   0  0  0  0  0  0  0  0  0  0  0  0
    5.7313    1.1693    0.0000 H   0  0  0  0  0  0  0  0  0  0  0  0
    6.1697    0.4099    0.0000 H   0  0  0  0  0  0  0  0  0  0  0  0
   11.3658    1.0901    0.0000 H   0  0  0  0  0  0  0  0  0  0  0  0
   10.9274    0.3307    0.0000 H   0  0  0  0  0  0  0  0  0  0  0  0
   11.6867   -0.1077    0.0000 H   0  0  0  0  0  0  0  0  0  0  0  0
   12.2235    1.8955    0.0000 H   0  0  0  0  0  0  0  0  0  0  0  0
   11.3467    1.8955    0.0000 H   0  0  0  0  0  0  0  0  0  0  0  0
   11.3467    1.0187    0.0000 H   0  0  0  0  0  0  0  0  0  0  0  0
    8.5021    3.3764    0.0000 H   0  0  0  0  0  0  0  0  0  0  0  0
    7.7428    3.8148    0.0000 H   0  0  0  0  0  0  0  0  0  0  0  0
    7.3044    3.0555    0.0000 H   0  0  0  0  0  0  0  0  0  0  0  0
    7.3566    3.1077    0.0000 H   0  0  0  0  0  0  0  0  0  0  0  0
    6.5973    2.6693    0.0000 H   0  0  0  0  0  0  0  0  0  0  0  0
    7.0357    1.9100    0.0000 H   0  0  0  0  0  0  0  0  0  0  0  0
   14.4846    1.9100    0.0000 H   0  0  0  0  0  0  0  0  0  0  0  0
   14.9230    2.6693    0.0000 H   0  0  0  0  0  0  0  0  0  0  0  0
   14.1637    3.1077    0.0000 H   0  0  0  0  0  0  0  0  0  0  0  0
   14.2159    3.0555    0.0000 H   0  0  0  0  0  0  0  0  0  0  0  0
   13.7775    3.8148    0.0000 H   0  0  0  0  0  0  0  0  0  0  0  0
   13.0182    3.3764    0.0000 H   0  0  0  0  0  0  0  0  0  0  0  0
    9.5541    1.1236    0.0000 H   0  0  0  0  0  0  0  0  0  0  0  0
   10.3134    0.6852    0.0000 H   0  0  0  0  0  0  0  0  0  0  0  0
   10.7518    1.4445    0.0000 H   0  0  0  0  0  0  0  0  0  0  0  0
    8.7486    1.9812    0.0000 H   0  0  0  0  0  0  0  0  0  0  0  0
    8.7487    1.1044    0.0000 H   0  0  0  0  0  0  0  0  0  0  0  0
    9.6255    1.1045    0.0000 H   0  0  0  0  0  0  0  0  0  0  0  0
   10.4807    1.9812    0.0000 H   0  0  0  0  0  0  0  0  0  0  0  0
   10.4807    1.1044    0.0000 H   0  0  0  0  0  0  0  0  0  0  0  0
   11.3576    1.1045    0.0000 H   0  0  0  0  0  0  0  0  0  0  0  0
   12.2705    1.2655    0.0000 H   0  0  0  0  0  0  0  0  0  0  0  0
   13.0944    1.5654    0.0000 H   0  0  0  0  0  0  0  0  0  0  0  0
   12.7945    2.3893    0.0000 H   0  0  0  0  0  0  0  0  0  0  0  0
  1 16  1  0  0  0  0
  1 17  1  0  0  0  0
  1 31  1  0  0  0  0
  1 32  1  0  0  0  0
  2 16  1  0  0  0  0
  2 18  1  0  0  0  0
  2 33  1  0  0  0  0
  2 34  1  0  0  0  0
  3 17  1  0  0  0  0
  3 19  1  0  0  0  0
  3 35  1  0  0  0  0
  3 36  1  0  0  0  0
  4 18  1  0  0  0  0
  4 20  1  0  0  0  0
  4 37  1  0  0  0  0
  4 38  1  0  0  0  0
  5 19  1  0  0  0  0
  5 21  1  0  0  0  0
  5 39  1  0  0  0  0
  5 40  1  0  0  0  0
  6 20  1  0  0  0  0
  6 22  1  0  0  0  0
  6 41  1  0  0  0  0
  6 42  1  0  0  0  0
  7 21  1  0  0  0  0
  7 23  1  0  0  0  0
  7 43  1  0  0  0  0
  7 44  1  0  0  0  0
  8 22  1  0  0  0  0
  8 24  1  0  0  0  0
  8 45  1  0  0  0  0
  8 46  1  0  0  0  0
  9 23  1  0  0  0  0
  9 25  1  0  0  0  0
  9 47  1  0  0  0  0
  9 48  1  0  0  0  0
 10 24  1  0  0  0  0
 10 26  1  0  0  0  0
 10 49  1  0  0  0  0
 10 50  1  0  0  0  0
 11 25  1  0  0  0  0
 11 27  1  0  0  0  0
 11 51  1  0  0  0  0
 11 52  1  0  0  0  0
 12 26  1  0  0  0  0
 12 28  1  0  0  0  0
 12 53  1  0  0  0  0
 12 54  1  0  0  0  0
 13 27  1  0  0  0  0
 13 29  1  0  0  0  0
 13 55  1  0  0  0  0
 13 56  1  0  0  0  0
 14 28  1  0  0  0  0
 14 30  1  0  0  0  0
 14 57  1  0  0  0  0
 14 58  1  0  0  0  0
 15 29  1  0  0  0  0
 15 30  1  0  0  0  0
 15 59  1  0  0  0  0
 15 60  1  0  0  0  0
 31 61  1  0  0  0  0
 31 62  1  0  0  0  0
 31 63  1  0  0  0  0
 32 64  1  0  0  0  0
 32 65  1  0  0  0  0
 32 66  1  0  0  0  0
 33 67  1  0  0  0  0
 33 68  1  0  0  0  0
 33 69  1  0  0  0  0
 34 70  1  0  0  0  0
 34 71  1  0  0  0  0
 34 72  1  0  0  0  0
 35 73  1  0  0  0  0
 35 74  1  0  0  0  0
 35 75  1  0  0  0  0
 36 76  1  0  0  0  0
 36 77  1  0  0  0  0
 36 78  1  0  0  0  0
 37 79  1  0  0  0  0
 37 80  1  0  0  0  0
 37 81  1  0  0  0  0
 38 82  1  0  0  0  0
 38 83  1  0  0  0  0
 38 84  1  0  0  0  0
 39 85  1  0  0  0  0
 39 86  1  0  0  0  0
 39 87  1  0  0  0  0
 40 88  1  0  0  0  0
 40 89  1  0  0  0  0
 40 90  1  0  0  0  0
 41 91  1  0  0  0  0
 41 92  1  0  0  0  0
 41 93  1  0  0  0  0
 42 94  1  0  0  0  0
 42 95  1  0  0  0  0
 42 96  1  0  0  0  0
 43 97  1  0  0  0  0
 43 98  1  0  0  0  0
 43 99  1  0  0  0  0
 44100  1  0  0  0  0
 44101  1  0  0  0  0
 44102  1  0  0  0  0
 45103  1  0  0  0  0
 45104  1  0  0  0  0
 45105  1  0  0  0  0
 46106  1  0  0  0  0
 46107  1  0  0  0  0
 46108  1  0  0  0  0
 47109  1  0  0  0  0
 47110  1  0  0  0  0
 47111  1  0  0  0  0
 48112  1  0  0  0  0
 48113  1  0  0  0  0
 48114  1  0  0  0  0
 49115  1  0  0  0  0
 49116  1  0  0  0  0
 49117  1  0  0  0  0
 50118  1  0  0  0  0
 50119  1  0  0  0  0
 50120  1  0  0  0  0
 51121  1  0  0  0  0
 51122  1  0  0  0  0
 51123  1  0  0  0  0
 52124  1  0  0  0  0
 52125  1  0  0  0  0
 52126  1  0  0  0  0
 53127  1  0  0  0  0
 53128  1  0  0  0  0
 53129  1  0  0  0  0
 54130  1  0  0  0  0
 54131  1  0  0  0  0
 54132  1  0  0  0  0
 55133  1  0  0  0  0
 55134  1  0  0  0  0
 55135  1  0  0  0  0
 56136  1  0  0  0  0
 56137  1  0  0  0  0
 56138  1  0  0  0  0
 57139  1  0  0  0  0
 57140  1  0  0  0  0
 57141  1  0  0  0  0
 58142  1  0  0  0  0
 58143  1  0  0  0  0
 58144  1  0  0  0  0
 59145  1  0  0  0  0
 59146  1  0  0  0  0
 59147  1  0  0  0  0
 60148  1  0  0  0  0
 60149  1  0  0  0  0
 60150  1  0  0  0  0
M  END
> <PUBCHEM_COMPOUND_CID>
168116

> <PUBCHEM_COMPOUND_CANONICALIZED>
1

> <PUBCHEM_CACTVS_COMPLEXITY>
940

> <PUBCHEM_CACTVS_HBOND_ACCEPTOR>
15

> <PUBCHEM_CACTVS_HBOND_DONOR>
0

> <PUBCHEM_CACTVS_ROTATABLE_BOND>
0

> <PUBCHEM_CACTVS_SUBSKEYS>
AAADcfB4PAwAAAAAAAAAAAAAAAAAAAAAAAAAAAAAAAAAAAAAAAAAEBAAAEAAAAAAAABCAAAAAAEAAAAAAAAAAAAAAAAAAAAAAAAAAAAAAAAAAAAAAAAAAAAAAAAAAAAAAAAAAAAAAAAAAAAAAAAAAAAAAA==

> <PUBCHEM_IUPAC_OPENEYE_NAME>
2,2,4,4,6,6,8,8,10,10,12,12,14,14,16,16,18,18,20,20,22,22,24,24,26,26,28,28,30,30-triacontamethyl-1,3,5,7,9,11,13,15,17,19,21,23,25,27,29-pentadecaoxa-2,4,6,8,10,12,14,16,18,20,22,24,26,28,30-pentadecasilacyclotriacontane

> <PUBCHEM_IUPAC_CAS_NAME>
2,2,4,4,6,6,8,8,10,10,12,12,14,14,16,16,18,18,20,20,22,22,24,24,26,26,28,28,30,30-triacontamethyl-1,3,5,7,9,11,13,15,17,19,21,23,25,27,29-pentadecaoxa-2,4,6,8,10,12,14,16,18,20,22,24,26,28,30-pentadecasilacyclotriacontane

> <PUBCHEM_IUPAC_NAME_MARKUP>
2,2,4,4,6,6,8,8,10,10,12,12,14,14,16,16,18,18,20,20,22,22,24,24,26,26,28,28,30,30-triacontamethyl-1,3,5,7,9,11,13,15,17,19,21,23,25,27,29-pentadecaoxa-2,4,6,8,10,12,14,16,18,20,22,24,26,28,30-pentadecasilacyclotriacontane

> <PUBCHEM_IUPAC_NAME>
2,2,4,4,6,6,8,8,10,10,12,12,14,14,16,16,18,18,20,20,22,22,24,24,26,26,28,28,30,30-triacontamethyl-1,3,5,7,9,11,13,15,17,19,21,23,25,27,29-pentadecaoxa-2,4,6,8,10,12,14,16,18,20,22,24,26,28,30-pentadecasilacyclotriacontane

> <PUBCHEM_IUPAC_SYSTEMATIC_NAME>
2,2,4,4,6,6,8,8,10,10,12,12,14,14,16,16,18,18,20,20,22,22,24,24,26,26,28,28,30,30-triacontamethyl-1,3,5,7,9,11,13,15,17,19,21,23,25,27,29-pentadecaoxa-2,4,6,8,10,12,14,16,18,20,22,24,26,28,30-pentadecasilacyclotriacontane

> <PUBCHEM_IUPAC_TRADITIONAL_NAME>
2,2,4,4,6,6,8,8,10,10,12,12,14,14,16,16,18,18,20,20,22,22,24,24,26,26,28,28,30,30-triacontamethyl-1,3,5,7,9,11,13,15,17,19,21,23,25,27,29-pentadecaoxa-2,4,6,8,10,12,14,16,18,20,22,24,26,28,30-pentadecasilacyclotriacontane

> <PUBCHEM_IUPAC_INCHI>
InChI=1S/C30H90O15Si15/c1-46(2)31-47(3,4)33-49(7,8)35-51(11,12)37-53(15,16)39-55(19,20)41-57(23,24)43-59(27,28)45-60(29,30)44-58(25,26)42-56(21,22)40-54(17,18)38-52(13,14)36-50(9,10)34-48(5,6)32-46/h1-30H3

> <PUBCHEM_IUPAC_INCHIKEY>
QQJAZIPZSXOQKO-UHFFFAOYSA-N

> <PUBCHEM_EXACT_MASS>
1110.28187018

> <PUBCHEM_MOLECULAR_FORMULA>
C30H90O15Si15

> <PUBCHEM_MOLECULAR_WEIGHT>
1112.3

> <PUBCHEM_SMILES>
C[Si]1(O[Si](O[Si](O[Si](O[Si](O[Si](O[Si](O[Si](O[Si](O[Si](O[Si](O[Si](O[Si](O[Si](O[Si](O1)(C)C)(C)C)(C)C)(C)C)(C)C)(C)C)(C)C)(C)C)(C)C)(C)C)(C)C)(C)C)(C)C)(C)C)C

> <PUBCHEM_CONNECTIVITY_SMILES>
C[Si]1(O[Si](O[Si](O[Si](O[Si](O[Si](O[Si](O[Si](O[Si](O[Si](O[Si](O[Si](O[Si](O[Si](O[Si](O1)(C)C)(C)C)(C)C)(C)C)(C)C)(C)C)(C)C)(C)C)(C)C)(C)C)(C)C)(C)C)(C)C)(C)C)C

> <PUBCHEM_CACTVS_TPSA>
138

> <PUBCHEM_MONOISOTOPIC_WEIGHT>
1110.28187018

> <PUBCHEM_TOTAL_CHARGE>
0

> <PUBCHEM_HEAVY_ATOM_COUNT>
60

> <PUBCHEM_ATOM_DEF_STEREO_COUNT>
0

> <PUBCHEM_ATOM_UDEF_STEREO_COUNT>
0

> <PUBCHEM_BOND_DEF_STEREO_COUNT>
0

> <PUBCHEM_BOND_UDEF_STEREO_COUNT>
0

> <PUBCHEM_ISOTOPIC_ATOM_COUNT>
0

> <PUBCHEM_COMPONENT_COUNT>
1

> <PUBCHEM_CACTVS_TAUTO_COUNT>
-1

> <PUBCHEM_COORDINATE_TYPE>
1
5
255

$$$$
