168440878
  -OEChem-05122608322D

 84 87  0     0  0  0  0  0  0999 V2000
    6.3301   -1.2500    0.0000 O   0  0  0  0  0  0  0  0  0  0  0  0
    7.1962    1.2500    0.0000 O   0  0  0  0  0  0  0  0  0  0  0  0
    4.5981   -6.2500    0.0000 O   0  0  0  0  0  0  0  0  0  0  0  0
    8.9282    6.2500    0.0000 O   0  0  0  0  0  0  0  0  0  0  0  0
    3.7321   -8.7500    0.0000 O   0  0  0  0  0  0  0  0  0  0  0  0
    9.7942    8.7500    0.0000 O   0  0  0  0  0  0  0  0  0  0  0  0
    4.5981   -1.2500    0.0000 O   0  0  0  0  0  0  0  0  0  0  0  0
    8.9282    1.2500    0.0000 O   0  0  0  0  0  0  0  0  0  0  0  0
    6.3301   -6.2500    0.0000 O   0  0  0  0  0  0  0  0  0  0  0  0
    7.1962    6.2500    0.0000 O   0  0  0  0  0  0  0  0  0  0  0  0
    2.0000   -8.7500    0.0000 O   0  0  0  0  0  0  0  0  0  0  0  0
   11.5263    8.7500    0.0000 O   0  0  0  0  0  0  0  0  0  0  0  0
    2.0000  -13.7500    0.0000 O   0  0  0  0  0  0  0  0  0  0  0  0
   11.5263   13.7500    0.0000 O   0  0  0  0  0  0  0  0  0  0  0  0
    3.7321  -13.7500    0.0000 O   0  0  0  0  0  0  0  0  0  0  0  0
    9.7942   13.7500    0.0000 O   0  0  0  0  0  0  0  0  0  0  0  0
    5.4641   -2.7500    0.0000 C   0  0  0  0  0  0  0  0  0  0  0  0
    8.0622    2.7500    0.0000 C   0  0  0  0  0  0  0  0  0  0  0  0
    5.4641   -4.7500    0.0000 C   0  0  0  0  0  0  0  0  0  0  0  0
    8.0622    4.7500    0.0000 C   0  0  0  0  0  0  0  0  0  0  0  0
    6.3301   -0.2500    0.0000 C   0  0  0  0  0  0  0  0  0  0  0  0
    7.1962    0.2500    0.0000 C   0  0  0  0  0  0  0  0  0  0  0  0
    6.3301   -3.2500    0.0000 C   0  0  0  0  0  0  0  0  0  0  0  0
    7.1962    3.2500    0.0000 C   0  0  0  0  0  0  0  0  0  0  0  0
    4.5981   -3.2500    0.0000 C   0  0  0  0  0  0  0  0  0  0  0  0
    8.9282    3.2500    0.0000 C   0  0  0  0  0  0  0  0  0  0  0  0
    6.3301   -4.2500    0.0000 C   0  0  0  0  0  0  0  0  0  0  0  0
    7.1962    4.2500    0.0000 C   0  0  0  0  0  0  0  0  0  0  0  0
    4.5981   -4.2500    0.0000 C   0  0  0  0  0  0  0  0  0  0  0  0
    8.9282    4.2500    0.0000 C   0  0  0  0  0  0  0  0  0  0  0  0
    4.5981   -7.2500    0.0000 C   0  0  0  0  0  0  0  0  0  0  0  0
    8.9282    7.2500    0.0000 C   0  0  0  0  0  0  0  0  0  0  0  0
    5.4641   -1.7500    0.0000 C   0  0  0  0  0  0  0  0  0  0  0  0
    8.0622    1.7500    0.0000 C   0  0  0  0  0  0  0  0  0  0  0  0
    3.7321   -7.7500    0.0000 C   0  0  0  0  0  0  0  0  0  0  0  0
    9.7942    7.7500    0.0000 C   0  0  0  0  0  0  0  0  0  0  0  0
    5.4641   -5.7500    0.0000 C   0  0  0  0  0  0  0  0  0  0  0  0
    8.0622    5.7500    0.0000 C   0  0  0  0  0  0  0  0  0  0  0  0
    2.8660  -10.2500    0.0000 C   0  0  0  0  0  0  0  0  0  0  0  0
   10.6603   10.2500    0.0000 C   0  0  0  0  0  0  0  0  0  0  0  0
    3.7321  -10.7500    0.0000 C   0  0  0  0  0  0  0  0  0  0  0  0
   11.5263   10.7500    0.0000 C   0  0  0  0  0  0  0  0  0  0  0  0
    2.0000  -10.7500    0.0000 C   0  0  0  0  0  0  0  0  0  0  0  0
    9.7942   10.7500    0.0000 C   0  0  0  0  0  0  0  0  0  0  0  0
    2.8660   -9.2500    0.0000 C   0  0  0  0  0  0  0  0  0  0  0  0
   10.6603    9.2500    0.0000 C   0  0  0  0  0  0  0  0  0  0  0  0
    2.8660  -12.2500    0.0000 C   0  0  0  0  0  0  0  0  0  0  0  0
   10.6603   12.2500    0.0000 C   0  0  0  0  0  0  0  0  0  0  0  0
    3.7321  -11.7500    0.0000 C   0  0  0  0  0  0  0  0  0  0  0  0
   11.5263   11.7500    0.0000 C   0  0  0  0  0  0  0  0  0  0  0  0
    2.0000  -11.7500    0.0000 C   0  0  0  0  0  0  0  0  0  0  0  0
    9.7942   11.7500    0.0000 C   0  0  0  0  0  0  0  0  0  0  0  0
    2.8660  -13.2500    0.0000 C   0  0  0  0  0  0  0  0  0  0  0  0
   10.6603   13.2500    0.0000 C   0  0  0  0  0  0  0  0  0  0  0  0
    6.1181    0.3326    0.0000 H   0  0  0  0  0  0  0  0  0  0  0  0
    5.7196   -0.3577    0.0000 H   0  0  0  0  0  0  0  0  0  0  0  0
    7.4082   -0.3326    0.0000 H   0  0  0  0  0  0  0  0  0  0  0  0
    7.8067    0.3577    0.0000 H   0  0  0  0  0  0  0  0  0  0  0  0
    6.8671   -2.9400    0.0000 H   0  0  0  0  0  0  0  0  0  0  0  0
    6.6592    2.9400    0.0000 H   0  0  0  0  0  0  0  0  0  0  0  0
    4.0611   -2.9400    0.0000 H   0  0  0  0  0  0  0  0  0  0  0  0
    9.4651    2.9400    0.0000 H   0  0  0  0  0  0  0  0  0  0  0  0
    6.8671   -4.5600    0.0000 H   0  0  0  0  0  0  0  0  0  0  0  0
    6.6592    4.5600    0.0000 H   0  0  0  0  0  0  0  0  0  0  0  0
    4.0611   -4.5600    0.0000 H   0  0  0  0  0  0  0  0  0  0  0  0
    9.4651    4.5600    0.0000 H   0  0  0  0  0  0  0  0  0  0  0  0
    4.8101   -7.8326    0.0000 H   0  0  0  0  0  0  0  0  0  0  0  0
    5.2087   -7.1423    0.0000 H   0  0  0  0  0  0  0  0  0  0  0  0
    8.7162    7.8326    0.0000 H   0  0  0  0  0  0  0  0  0  0  0  0
    8.3176    7.1423    0.0000 H   0  0  0  0  0  0  0  0  0  0  0  0
    3.5200   -7.1674    0.0000 H   0  0  0  0  0  0  0  0  0  0  0  0
    3.1215   -7.8577    0.0000 H   0  0  0  0  0  0  0  0  0  0  0  0
   10.0063    7.1674    0.0000 H   0  0  0  0  0  0  0  0  0  0  0  0
   10.4048    7.8577    0.0000 H   0  0  0  0  0  0  0  0  0  0  0  0
    4.2690  -10.4400    0.0000 H   0  0  0  0  0  0  0  0  0  0  0  0
   12.0632   10.4400    0.0000 H   0  0  0  0  0  0  0  0  0  0  0  0
    1.4631  -10.4400    0.0000 H   0  0  0  0  0  0  0  0  0  0  0  0
    9.2573   10.4400    0.0000 H   0  0  0  0  0  0  0  0  0  0  0  0
    4.2690  -12.0600    0.0000 H   0  0  0  0  0  0  0  0  0  0  0  0
   12.0632   12.0600    0.0000 H   0  0  0  0  0  0  0  0  0  0  0  0
    1.4631  -12.0600    0.0000 H   0  0  0  0  0  0  0  0  0  0  0  0
    9.2573   12.0600    0.0000 H   0  0  0  0  0  0  0  0  0  0  0  0
    2.0000  -14.3700    0.0000 H   0  0  0  0  0  0  0  0  0  0  0  0
   11.5263   14.3700    0.0000 H   0  0  0  0  0  0  0  0  0  0  0  0
  1 21  1  0  0  0  0
  1 33  1  0  0  0  0
  2 22  1  0  0  0  0
  2 34  1  0  0  0  0
  3 31  1  0  0  0  0
  3 37  1  0  0  0  0
  4 32  1  0  0  0  0
  4 38  1  0  0  0  0
  5 35  1  0  0  0  0
  5 45  1  0  0  0  0
  6 36  1  0  0  0  0
  6 46  1  0  0  0  0
  7 33  2  0  0  0  0
  8 34  2  0  0  0  0
  9 37  2  0  0  0  0
 10 38  2  0  0  0  0
 11 45  2  0  0  0  0
 12 46  2  0  0  0  0
 13 53  1  0  0  0  0
 13 83  1  0  0  0  0
 14 54  1  0  0  0  0
 14 84  1  0  0  0  0
 15 53  2  0  0  0  0
 16 54  2  0  0  0  0
 17 23  2  0  0  0  0
 17 25  1  0  0  0  0
 17 33  1  0  0  0  0
 18 24  2  0  0  0  0
 18 26  1  0  0  0  0
 18 34  1  0  0  0  0
 19 27  2  0  0  0  0
 19 29  1  0  0  0  0
 19 37  1  0  0  0  0
 20 28  2  0  0  0  0
 20 30  1  0  0  0  0
 20 38  1  0  0  0  0
 21 22  1  0  0  0  0
 21 55  1  0  0  0  0
 21 56  1  0  0  0  0
 22 57  1  0  0  0  0
 22 58  1  0  0  0  0
 23 27  1  0  0  0  0
 23 59  1  0  0  0  0
 24 28  1  0  0  0  0
 24 60  1  0  0  0  0
 25 29  2  0  0  0  0
 25 61  1  0  0  0  0
 26 30  2  0  0  0  0
 26 62  1  0  0  0  0
 27 63  1  0  0  0  0
 28 64  1  0  0  0  0
 29 65  1  0  0  0  0
 30 66  1  0  0  0  0
 31 35  1  0  0  0  0
 31 67  1  0  0  0  0
 31 68  1  0  0  0  0
 32 36  1  0  0  0  0
 32 69  1  0  0  0  0
 32 70  1  0  0  0  0
 35 71  1  0  0  0  0
 35 72  1  0  0  0  0
 36 73  1  0  0  0  0
 36 74  1  0  0  0  0
 39 41  2  0  0  0  0
 39 43  1  0  0  0  0
 39 45  1  0  0  0  0
 40 42  2  0  0  0  0
 40 44  1  0  0  0  0
 40 46  1  0  0  0  0
 41 49  1  0  0  0  0
 41 75  1  0  0  0  0
 42 50  1  0  0  0  0
 42 76  1  0  0  0  0
 43 51  2  0  0  0  0
 43 77  1  0  0  0  0
 44 52  2  0  0  0  0
 44 78  1  0  0  0  0
 47 49  2  0  0  0  0
 47 51  1  0  0  0  0
 47 53  1  0  0  0  0
 48 50  2  0  0  0  0
 48 52  1  0  0  0  0
 48 54  1  0  0  0  0
 49 79  1  0  0  0  0
 50 80  1  0  0  0  0
 51 81  1  0  0  0  0
 52 82  1  0  0  0  0
M  END
> <PUBCHEM_COMPOUND_CID>
168440878

> <PUBCHEM_COMPOUND_CANONICALIZED>
1

> <PUBCHEM_CACTVS_COMPLEXITY>
1210

> <PUBCHEM_CACTVS_HBOND_ACCEPTOR>
16

> <PUBCHEM_CACTVS_HBOND_DONOR>
2

> <PUBCHEM_CACTVS_ROTATABLE_BOND>
23

> <PUBCHEM_CACTVS_SUBSKEYS>
AAADceB8PgAAAAAAAAAAAAAAAAAAAAAAAAAwYMGAAAAAAAABVAAAGgAACAAADACgmAIwCIAABgCIAiDSCAACAAAkAAAIiAEACMgJJjKANRiCcQAkwAEKuYeIyDCOQAAAAAAAAACAAAAAAAAAAAAAAAAAAA==

> <PUBCHEM_IUPAC_OPENEYE_NAME>
4-[2-[4-[2-[4-[2-(4-carboxybenzoyl)oxyethoxycarbonyl]benzoyl]oxyethoxycarbonyl]benzoyl]oxyethoxycarbonyl]benzoic acid

> <PUBCHEM_IUPAC_CAS_NAME>
4-[2-[[4-[2-[[4-[2-[(4-carboxyphenyl)-oxomethoxy]ethoxy-oxomethyl]phenyl]-oxomethoxy]ethoxy-oxomethyl]phenyl]-oxomethoxy]ethoxy-oxomethyl]benzoic acid

> <PUBCHEM_IUPAC_NAME_MARKUP>
4-[2-[4-[2-[4-[2-(4-carboxybenzoyl)oxyethoxycarbonyl]benzoyl]oxyethoxycarbonyl]benzoyl]oxyethoxycarbonyl]benzoic acid

> <PUBCHEM_IUPAC_NAME>
4-[2-[4-[2-[4-[2-(4-carboxybenzoyl)oxyethoxycarbonyl]benzoyl]oxyethoxycarbonyl]benzoyl]oxyethoxycarbonyl]benzoic acid

> <PUBCHEM_IUPAC_SYSTEMATIC_NAME>
4-[2-[4-[2-[4-[2-(4-carboxyphenyl)carbonyloxyethoxycarbonyl]phenyl]carbonyloxyethoxycarbonyl]phenyl]carbonyloxyethoxycarbonyl]benzoic acid

> <PUBCHEM_IUPAC_TRADITIONAL_NAME>
4-[2-[4-[2-[4-[2-(4-carboxybenzoyl)oxyethoxycarbonyl]benzoyl]oxyethoxycarbonyl]benzoyl]oxyethoxycarbonyl]benzoic acid

> <PUBCHEM_IUPAC_INCHI>
InChI=1S/C38H30O16/c39-31(40)23-1-5-25(6-2-23)33(43)49-17-19-51-35(45)27-9-13-29(14-10-27)37(47)53-21-22-54-38(48)30-15-11-28(12-16-30)36(46)52-20-18-50-34(44)26-7-3-24(4-8-26)32(41)42/h1-16H,17-22H2,(H,39,40)(H,41,42)

> <PUBCHEM_IUPAC_INCHIKEY>
QGDVRSFGOFOZDL-UHFFFAOYSA-N

> <PUBCHEM_XLOGP3_AA>
5.2

> <PUBCHEM_EXACT_MASS>
742.15338487

> <PUBCHEM_MOLECULAR_FORMULA>
C38H30O16

> <PUBCHEM_MOLECULAR_WEIGHT>
742.6

> <PUBCHEM_SMILES>
C1=CC(=CC=C1C(=O)O)C(=O)OCCOC(=O)C2=CC=C(C=C2)C(=O)OCCOC(=O)C3=CC=C(C=C3)C(=O)OCCOC(=O)C4=CC=C(C=C4)C(=O)O

> <PUBCHEM_CONNECTIVITY_SMILES>
C1=CC(=CC=C1C(=O)O)C(=O)OCCOC(=O)C2=CC=C(C=C2)C(=O)OCCOC(=O)C3=CC=C(C=C3)C(=O)OCCOC(=O)C4=CC=C(C=C4)C(=O)O

> <PUBCHEM_CACTVS_TPSA>
232

> <PUBCHEM_MONOISOTOPIC_WEIGHT>
742.15338487

> <PUBCHEM_TOTAL_CHARGE>
0

> <PUBCHEM_HEAVY_ATOM_COUNT>
54

> <PUBCHEM_ATOM_DEF_STEREO_COUNT>
0

> <PUBCHEM_ATOM_UDEF_STEREO_COUNT>
0

> <PUBCHEM_BOND_DEF_STEREO_COUNT>
0

> <PUBCHEM_BOND_UDEF_STEREO_COUNT>
0

> <PUBCHEM_ISOTOPIC_ATOM_COUNT>
0

> <PUBCHEM_COMPONENT_COUNT>
1

> <PUBCHEM_CACTVS_TAUTO_COUNT>
-1

> <PUBCHEM_COORDINATE_TYPE>
1
5
255

> <PUBCHEM_BONDANNOTATIONS>
17  23  8
17  25  8
18  24  8
18  26  8
19  27  8
19  29  8
20  28  8
20  30  8
23  27  8
24  28  8
25  29  8
26  30  8
39  41  8
39  43  8
40  42  8
40  44  8
41  49  8
42  50  8
43  51  8
44  52  8
47  49  8
47  51  8
48  50  8
48  52  8

$$$$
