16932
  -OEChem-05122609452D

 29 32  0     0  0  0  0  0  0999 V2000
    3.7370    0.5000    0.0000 C   0  0  0  0  0  0  0  0  0  0  0  0
    3.7370   -0.5000    0.0000 C   0  0  0  0  0  0  0  0  0  0  0  0
    2.8710    1.0000    0.0000 C   0  0  0  0  0  0  0  0  0  0  0  0
    4.6309    1.0347    0.0000 C   0  0  0  0  0  0  0  0  0  0  0  0
    2.8710   -1.0000    0.0000 C   0  0  0  0  0  0  0  0  0  0  0  0
    4.6309   -1.0347    0.0000 C   0  0  0  0  0  0  0  0  0  0  0  0
    2.8697    1.9917    0.0000 C   0  0  0  0  0  0  0  0  0  0  0  0
    2.0049    0.5000    0.0000 C   0  0  0  0  0  0  0  0  0  0  0  0
    2.0049   -0.5000    0.0000 C   0  0  0  0  0  0  0  0  0  0  0  0
    5.5370    0.5208    0.0000 C   0  0  0  0  0  0  0  0  0  0  0  0
    5.5370   -0.5208    0.0000 C   0  0  0  0  0  0  0  0  0  0  0  0
    4.5931    2.0256    0.0000 C   0  0  0  0  0  0  0  0  0  0  0  0
    3.7218    2.4991    0.0000 C   0  0  0  0  0  0  0  0  0  0  0  0
    2.8697   -1.9917    0.0000 C   0  0  0  0  0  0  0  0  0  0  0  0
    4.5931   -2.0256    0.0000 C   0  0  0  0  0  0  0  0  0  0  0  0
    3.7218   -2.4991    0.0000 C   0  0  0  0  0  0  0  0  0  0  0  0
    2.0000    2.4853    0.0000 C   0  0  0  0  0  0  0  0  0  0  0  0
    1.4680    0.8100    0.0000 H   0  0  0  0  0  0  0  0  0  0  0  0
    1.4680   -0.8100    0.0000 H   0  0  0  0  0  0  0  0  0  0  0  0
    6.0727    0.8329    0.0000 H   0  0  0  0  0  0  0  0  0  0  0  0
    6.0727   -0.8329    0.0000 H   0  0  0  0  0  0  0  0  0  0  0  0
    5.1199    2.3527    0.0000 H   0  0  0  0  0  0  0  0  0  0  0  0
    3.7095    3.1190    0.0000 H   0  0  0  0  0  0  0  0  0  0  0  0
    2.3305   -2.2977    0.0000 H   0  0  0  0  0  0  0  0  0  0  0  0
    5.1199   -2.3527    0.0000 H   0  0  0  0  0  0  0  0  0  0  0  0
    3.7095   -3.1190    0.0000 H   0  0  0  0  0  0  0  0  0  0  0  0
    2.3060    3.0245    0.0000 H   0  0  0  0  0  0  0  0  0  0  0  0
    1.4608    2.7913    0.0000 H   0  0  0  0  0  0  0  0  0  0  0  0
    1.6940    1.9461    0.0000 H   0  0  0  0  0  0  0  0  0  0  0  0
  1  2  1  0  0  0  0
  1  3  1  0  0  0  0
  1  4  2  0  0  0  0
  2  5  1  0  0  0  0
  2  6  2  0  0  0  0
  3  7  2  0  0  0  0
  3  8  1  0  0  0  0
  4 10  1  0  0  0  0
  4 12  1  0  0  0  0
  5  9  1  0  0  0  0
  5 14  2  0  0  0  0
  6 11  1  0  0  0  0
  6 15  1  0  0  0  0
  7 13  1  0  0  0  0
  7 17  1  0  0  0  0
  8  9  2  0  0  0  0
  8 18  1  0  0  0  0
  9 19  1  0  0  0  0
 10 11  2  0  0  0  0
 10 20  1  0  0  0  0
 11 21  1  0  0  0  0
 12 13  2  0  0  0  0
 12 22  1  0  0  0  0
 13 23  1  0  0  0  0
 14 16  1  0  0  0  0
 14 24  1  0  0  0  0
 15 16  2  0  0  0  0
 15 25  1  0  0  0  0
 16 26  1  0  0  0  0
 17 27  1  0  0  0  0
 17 28  1  0  0  0  0
 17 29  1  0  0  0  0
M  END
> <PUBCHEM_COMPOUND_CID>
16932

> <PUBCHEM_COMPOUND_CANONICALIZED>
1

> <PUBCHEM_CACTVS_COMPLEXITY>
294

> <PUBCHEM_CACTVS_HBOND_ACCEPTOR>
0

> <PUBCHEM_CACTVS_HBOND_DONOR>
0

> <PUBCHEM_CACTVS_ROTATABLE_BOND>
0

> <PUBCHEM_CACTVS_SUBSKEYS>
AAADccB4AAAAAAAAAAAAAAAAAAAAAAAAAAAwYMGAAAAAAADBVAAAGAAAAAAADACAGAAyAMAAAACAAiBCAAACAAAgAAAIiAAAAIgIICKAERCAIAAggAAIiAcAgMAOwAACAAAQAACAAAQAACAAAAAAAAAAAA==

> <PUBCHEM_IUPAC_OPENEYE_NAME>
1-methylpyrene

> <PUBCHEM_IUPAC_CAS_NAME>
1-methylpyrene

> <PUBCHEM_IUPAC_NAME_MARKUP>
1-methylpyrene

> <PUBCHEM_IUPAC_NAME>
1-methylpyrene

> <PUBCHEM_IUPAC_SYSTEMATIC_NAME>
1-methylpyrene

> <PUBCHEM_IUPAC_TRADITIONAL_NAME>
1-methylpyrene

> <PUBCHEM_IUPAC_INCHI>
InChI=1S/C17H12/c1-11-5-6-14-8-7-12-3-2-4-13-9-10-15(11)17(14)16(12)13/h2-10H,1H3

> <PUBCHEM_IUPAC_INCHIKEY>
KBSPJIWZDWBDGM-UHFFFAOYSA-N

> <PUBCHEM_XLOGP3_AA>
5.4

> <PUBCHEM_EXACT_MASS>
216.093900383

> <PUBCHEM_MOLECULAR_FORMULA>
C17H12

> <PUBCHEM_MOLECULAR_WEIGHT>
216.28

> <PUBCHEM_SMILES>
CC1=C2C=CC3=CC=CC4=C3C2=C(C=C1)C=C4

> <PUBCHEM_CONNECTIVITY_SMILES>
CC1=C2C=CC3=CC=CC4=C3C2=C(C=C1)C=C4

> <PUBCHEM_CACTVS_TPSA>
0

> <PUBCHEM_MONOISOTOPIC_WEIGHT>
216.093900383

> <PUBCHEM_TOTAL_CHARGE>
0

> <PUBCHEM_HEAVY_ATOM_COUNT>
17

> <PUBCHEM_ATOM_DEF_STEREO_COUNT>
0

> <PUBCHEM_ATOM_UDEF_STEREO_COUNT>
0

> <PUBCHEM_BOND_DEF_STEREO_COUNT>
0

> <PUBCHEM_BOND_UDEF_STEREO_COUNT>
0

> <PUBCHEM_ISOTOPIC_ATOM_COUNT>
0

> <PUBCHEM_COMPONENT_COUNT>
1

> <PUBCHEM_CACTVS_TAUTO_COUNT>
-1

> <PUBCHEM_COORDINATE_TYPE>
1
5
255

> <PUBCHEM_BONDANNOTATIONS>
1  2  8
1  3  8
1  4  8
10  11  8
12  13  8
14  16  8
15  16  8
2  5  8
2  6  8
3  7  8
3  8  8
4  10  8
4  12  8
5  14  8
5  9  8
6  11  8
6  15  8
7  13  8
8  9  8

$$$$
