170756
  -OEChem-05122610062D

 39 38  0     0  0  0  0  0  0999 V2000
    3.4030    0.0000    0.0000 S   0  0  0  0  0  0  0  0  0  0  0  0
    2.5369   -0.5000    0.0000 O   0  0  0  0  0  0  0  0  0  0  0  0
    2.9030    0.8660    0.0000 O   0  0  0  0  0  0  0  0  0  0  0  0
    3.9030   -0.8660    0.0000 O   0  0  0  0  0  0  0  0  0  0  0  0
    7.7331    0.5000    0.0000 C   0  0  0  0  0  0  0  0  0  0  0  0
    8.5991   -0.0000    0.0000 C   0  0  0  0  0  0  0  0  0  0  0  0
    6.8671   -0.0000    0.0000 C   0  0  0  0  0  0  0  0  0  0  0  0
    9.4651    0.5000    0.0000 C   0  0  0  0  0  0  0  0  0  0  0  0
    6.0010    0.5000    0.0000 C   0  0  0  0  0  0  0  0  0  0  0  0
   10.3312   -0.0000    0.0000 C   0  0  0  0  0  0  0  0  0  0  0  0
    5.1350    0.0000    0.0000 C   0  0  0  0  0  0  0  0  0  0  0  0
   11.1972    0.5000    0.0000 C   0  0  0  0  0  0  0  0  0  0  0  0
    4.2690    0.5000    0.0000 C   0  0  0  0  0  0  0  0  0  0  0  0
   12.0632   -0.0000    0.0000 C   0  0  0  0  0  0  0  0  0  0  0  0
   12.9292    0.5000    0.0000 C   0  0  0  0  0  0  0  0  0  0  0  0
    8.1316    0.9749    0.0000 H   0  0  0  0  0  0  0  0  0  0  0  0
    7.3346    0.9749    0.0000 H   0  0  0  0  0  0  0  0  0  0  0  0
    8.2006   -0.4749    0.0000 H   0  0  0  0  0  0  0  0  0  0  0  0
    8.9976   -0.4749    0.0000 H   0  0  0  0  0  0  0  0  0  0  0  0
    6.4685   -0.4749    0.0000 H   0  0  0  0  0  0  0  0  0  0  0  0
    7.2656   -0.4749    0.0000 H   0  0  0  0  0  0  0  0  0  0  0  0
    9.8637    0.9749    0.0000 H   0  0  0  0  0  0  0  0  0  0  0  0
    9.0666    0.9749    0.0000 H   0  0  0  0  0  0  0  0  0  0  0  0
    6.3996    0.9749    0.0000 H   0  0  0  0  0  0  0  0  0  0  0  0
    5.6025    0.9749    0.0000 H   0  0  0  0  0  0  0  0  0  0  0  0
    9.9326   -0.4749    0.0000 H   0  0  0  0  0  0  0  0  0  0  0  0
   10.7297   -0.4749    0.0000 H   0  0  0  0  0  0  0  0  0  0  0  0
    4.7365   -0.4749    0.0000 H   0  0  0  0  0  0  0  0  0  0  0  0
    5.5335   -0.4749    0.0000 H   0  0  0  0  0  0  0  0  0  0  0  0
   11.5957    0.9749    0.0000 H   0  0  0  0  0  0  0  0  0  0  0  0
   10.7987    0.9749    0.0000 H   0  0  0  0  0  0  0  0  0  0  0  0
    4.6675    0.9749    0.0000 H   0  0  0  0  0  0  0  0  0  0  0  0
    3.8705    0.9749    0.0000 H   0  0  0  0  0  0  0  0  0  0  0  0
   11.6647   -0.4749    0.0000 H   0  0  0  0  0  0  0  0  0  0  0  0
   12.4617   -0.4749    0.0000 H   0  0  0  0  0  0  0  0  0  0  0  0
   13.2392   -0.0369    0.0000 H   0  0  0  0  0  0  0  0  0  0  0  0
   13.4662    0.8100    0.0000 H   0  0  0  0  0  0  0  0  0  0  0  0
   12.6192    1.0369    0.0000 H   0  0  0  0  0  0  0  0  0  0  0  0
    2.0000   -0.1900    0.0000 H   0  0  0  0  0  0  0  0  0  0  0  0
  1  2  1  0  0  0  0
  1  3  2  0  0  0  0
  1  4  2  0  0  0  0
  1 13  1  0  0  0  0
  2 39  1  0  0  0  0
  5  6  1  0  0  0  0
  5  7  1  0  0  0  0
  5 16  1  0  0  0  0
  5 17  1  0  0  0  0
  6  8  1  0  0  0  0
  6 18  1  0  0  0  0
  6 19  1  0  0  0  0
  7  9  1  0  0  0  0
  7 20  1  0  0  0  0
  7 21  1  0  0  0  0
  8 10  1  0  0  0  0
  8 22  1  0  0  0  0
  8 23  1  0  0  0  0
  9 11  1  0  0  0  0
  9 24  1  0  0  0  0
  9 25  1  0  0  0  0
 10 12  1  0  0  0  0
 10 26  1  0  0  0  0
 10 27  1  0  0  0  0
 11 13  1  0  0  0  0
 11 28  1  0  0  0  0
 11 29  1  0  0  0  0
 12 14  1  0  0  0  0
 12 30  1  0  0  0  0
 12 31  1  0  0  0  0
 13 32  1  0  0  0  0
 13 33  1  0  0  0  0
 14 15  1  0  0  0  0
 14 34  1  0  0  0  0
 14 35  1  0  0  0  0
 15 36  1  0  0  0  0
 15 37  1  0  0  0  0
 15 38  1  0  0  0  0
M  END
> <PUBCHEM_COMPOUND_CID>
170756

> <PUBCHEM_COMPOUND_CANONICALIZED>
1

> <PUBCHEM_CACTVS_COMPLEXITY>
216

> <PUBCHEM_CACTVS_HBOND_ACCEPTOR>
3

> <PUBCHEM_CACTVS_HBOND_DONOR>
1

> <PUBCHEM_CACTVS_ROTATABLE_BOND>
10

> <PUBCHEM_CACTVS_SUBSKEYS>
AAADceBwMABAAAAAAAAAAAAAAAAAAAAAAAAAAAAAAAAAAAAAAAAAGAQACAAACACEQACCAAAAAIIAAAAAAHBAAAAAAAAAAAAAAAAAAAIAAAAAAAAAAAAAAAEAgIAAAAAAAAAAAAAAAAAAAAAAAAAAAAAAAA==

> <PUBCHEM_IUPAC_OPENEYE_NAME>
undecane-1-sulfonic acid

> <PUBCHEM_IUPAC_CAS_NAME>
1-undecanesulfonic acid

> <PUBCHEM_IUPAC_NAME_MARKUP>
undecane-1-sulfonic acid

> <PUBCHEM_IUPAC_NAME>
undecane-1-sulfonic acid

> <PUBCHEM_IUPAC_SYSTEMATIC_NAME>
undecane-1-sulfonic acid

> <PUBCHEM_IUPAC_TRADITIONAL_NAME>
undecane-1-sulfonic acid

> <PUBCHEM_IUPAC_INCHI>
InChI=1S/C11H24O3S/c1-2-3-4-5-6-7-8-9-10-11-15(12,13)14/h2-11H2,1H3,(H,12,13,14)

> <PUBCHEM_IUPAC_INCHIKEY>
SJEYEFOHSMBQIX-UHFFFAOYSA-N

> <PUBCHEM_XLOGP3_AA>
4.2

> <PUBCHEM_EXACT_MASS>
236.14461580

> <PUBCHEM_MOLECULAR_FORMULA>
C11H24O3S

> <PUBCHEM_MOLECULAR_WEIGHT>
236.37

> <PUBCHEM_SMILES>
CCCCCCCCCCCS(=O)(=O)O

> <PUBCHEM_CONNECTIVITY_SMILES>
CCCCCCCCCCCS(=O)(=O)O

> <PUBCHEM_CACTVS_TPSA>
62.8

> <PUBCHEM_MONOISOTOPIC_WEIGHT>
236.14461580

> <PUBCHEM_TOTAL_CHARGE>
0

> <PUBCHEM_HEAVY_ATOM_COUNT>
15

> <PUBCHEM_ATOM_DEF_STEREO_COUNT>
0

> <PUBCHEM_ATOM_UDEF_STEREO_COUNT>
0

> <PUBCHEM_BOND_DEF_STEREO_COUNT>
0

> <PUBCHEM_BOND_UDEF_STEREO_COUNT>
0

> <PUBCHEM_ISOTOPIC_ATOM_COUNT>
0

> <PUBCHEM_COMPONENT_COUNT>
1

> <PUBCHEM_CACTVS_TAUTO_COUNT>
-1

> <PUBCHEM_COORDINATE_TYPE>
1
5
255

$$$$
