170898
  -OEChem-05122610002D

 55 55  0     0  0  0  0  0  0999 V2000
    6.8671    0.5000    0.0000 O   0  0  0  0  0  0  0  0  0  0  0  0
    2.5369    0.0000    0.0000 O   0  0  0  0  0  0  0  0  0  0  0  0
    3.4030    1.5000    0.0000 O   0  0  0  0  0  0  0  0  0  0  0  0
    8.5991    1.5000    0.0000 C   0  0  0  0  0  0  0  0  0  0  0  0
   10.3312   -1.5000    0.0000 C   0  0  0  0  0  0  0  0  0  0  0  0
    8.5991    0.5000    0.0000 C   0  0  0  0  0  0  0  0  0  0  0  0
    9.4651   -1.0000    0.0000 C   0  0  0  0  0  0  0  0  0  0  0  0
    8.5991    2.5000    0.0000 C   0  0  0  0  0  0  0  0  0  0  0  0
    9.4651    0.0000    0.0000 C   0  0  0  0  0  0  0  0  0  0  0  0
   11.1972   -2.0000    0.0000 C   0  0  0  0  0  0  0  0  0  0  0  0
    9.5991    1.5000    0.0000 C   0  0  0  0  0  0  0  0  0  0  0  0
    7.5991    1.5000    0.0000 C   0  0  0  0  0  0  0  0  0  0  0  0
    7.7331    0.0000    0.0000 C   0  0  0  0  0  0  0  0  0  0  0  0
    9.8312   -2.3660    0.0000 C   0  0  0  0  0  0  0  0  0  0  0  0
   10.8312   -0.6340    0.0000 C   0  0  0  0  0  0  0  0  0  0  0  0
    8.5991   -1.5000    0.0000 C   0  0  0  0  0  0  0  0  0  0  0  0
    7.7331   -1.0000    0.0000 C   0  0  0  0  0  0  0  0  0  0  0  0
    9.4651    3.0000    0.0000 C   0  0  0  0  0  0  0  0  0  0  0  0
   11.1972   -3.0000    0.0000 C   0  0  0  0  0  0  0  0  0  0  0  0
    6.0010    0.0000    0.0000 C   0  0  0  0  0  0  0  0  0  0  0  0
    5.1350    0.5000    0.0000 C   0  0  0  0  0  0  0  0  0  0  0  0
    4.2690    0.0000    0.0000 C   0  0  0  0  0  0  0  0  0  0  0  0
    3.4030    0.5000    0.0000 C   0  0  0  0  0  0  0  0  0  0  0  0
    8.3871    3.0826    0.0000 H   0  0  0  0  0  0  0  0  0  0  0  0
    7.9885    2.3923    0.0000 H   0  0  0  0  0  0  0  0  0  0  0  0
   10.0021    0.3100    0.0000 H   0  0  0  0  0  0  0  0  0  0  0  0
   11.8078   -2.1077    0.0000 H   0  0  0  0  0  0  0  0  0  0  0  0
   11.4092   -1.4174    0.0000 H   0  0  0  0  0  0  0  0  0  0  0  0
    9.5991    0.8800    0.0000 H   0  0  0  0  0  0  0  0  0  0  0  0
   10.2191    1.5000    0.0000 H   0  0  0  0  0  0  0  0  0  0  0  0
    9.5991    2.1200    0.0000 H   0  0  0  0  0  0  0  0  0  0  0  0
    7.5991    2.1200    0.0000 H   0  0  0  0  0  0  0  0  0  0  0  0
    6.9791    1.5000    0.0000 H   0  0  0  0  0  0  0  0  0  0  0  0
    7.5991    0.8800    0.0000 H   0  0  0  0  0  0  0  0  0  0  0  0
    9.2942   -2.0560    0.0000 H   0  0  0  0  0  0  0  0  0  0  0  0
    9.5212   -2.9030    0.0000 H   0  0  0  0  0  0  0  0  0  0  0  0
   10.3681   -2.6760    0.0000 H   0  0  0  0  0  0  0  0  0  0  0  0
   11.3681   -0.9440    0.0000 H   0  0  0  0  0  0  0  0  0  0  0  0
   11.1412   -0.0970    0.0000 H   0  0  0  0  0  0  0  0  0  0  0  0
   10.2942   -0.3240    0.0000 H   0  0  0  0  0  0  0  0  0  0  0  0
    8.5991   -2.1200    0.0000 H   0  0  0  0  0  0  0  0  0  0  0  0
    7.1962   -1.3100    0.0000 H   0  0  0  0  0  0  0  0  0  0  0  0
    9.7751    2.4631    0.0000 H   0  0  0  0  0  0  0  0  0  0  0  0
   10.0021    3.3100    0.0000 H   0  0  0  0  0  0  0  0  0  0  0  0
    9.1551    3.5369    0.0000 H   0  0  0  0  0  0  0  0  0  0  0  0
   10.5772   -3.0000    0.0000 H   0  0  0  0  0  0  0  0  0  0  0  0
   11.1972   -3.6200    0.0000 H   0  0  0  0  0  0  0  0  0  0  0  0
   11.8172   -3.0000    0.0000 H   0  0  0  0  0  0  0  0  0  0  0  0
    5.6025   -0.4749    0.0000 H   0  0  0  0  0  0  0  0  0  0  0  0
    6.3996   -0.4749    0.0000 H   0  0  0  0  0  0  0  0  0  0  0  0
    5.5335    0.9749    0.0000 H   0  0  0  0  0  0  0  0  0  0  0  0
    4.7365    0.9749    0.0000 H   0  0  0  0  0  0  0  0  0  0  0  0
    3.8705   -0.4749    0.0000 H   0  0  0  0  0  0  0  0  0  0  0  0
    4.6675   -0.4749    0.0000 H   0  0  0  0  0  0  0  0  0  0  0  0
    2.0000    0.3100    0.0000 H   0  0  0  0  0  0  0  0  0  0  0  0
  1 13  1  0  0  0  0
  1 20  1  0  0  0  0
  2 23  1  0  0  0  0
  2 55  1  0  0  0  0
  3 23  2  0  0  0  0
  4  6  1  0  0  0  0
  4  8  1  0  0  0  0
  4 11  1  0  0  0  0
  4 12  1  0  0  0  0
  5  7  1  0  0  0  0
  5 10  1  0  0  0  0
  5 14  1  0  0  0  0
  5 15  1  0  0  0  0
  6  9  1  0  0  0  0
  6 13  2  0  0  0  0
  7  9  2  0  0  0  0
  7 16  1  0  0  0  0
  8 18  1  0  0  0  0
  8 24  1  0  0  0  0
  8 25  1  0  0  0  0
  9 26  1  0  0  0  0
 10 19  1  0  0  0  0
 10 27  1  0  0  0  0
 10 28  1  0  0  0  0
 11 29  1  0  0  0  0
 11 30  1  0  0  0  0
 11 31  1  0  0  0  0
 12 32  1  0  0  0  0
 12 33  1  0  0  0  0
 12 34  1  0  0  0  0
 13 17  1  0  0  0  0
 14 35  1  0  0  0  0
 14 36  1  0  0  0  0
 14 37  1  0  0  0  0
 15 38  1  0  0  0  0
 15 39  1  0  0  0  0
 15 40  1  0  0  0  0
 16 17  2  0  0  0  0
 16 41  1  0  0  0  0
 17 42  1  0  0  0  0
 18 43  1  0  0  0  0
 18 44  1  0  0  0  0
 18 45  1  0  0  0  0
 19 46  1  0  0  0  0
 19 47  1  0  0  0  0
 19 48  1  0  0  0  0
 20 21  1  0  0  0  0
 20 49  1  0  0  0  0
 20 50  1  0  0  0  0
 21 22  1  0  0  0  0
 21 51  1  0  0  0  0
 21 52  1  0  0  0  0
 22 23  1  0  0  0  0
 22 53  1  0  0  0  0
 22 54  1  0  0  0  0
M  END
> <PUBCHEM_COMPOUND_CID>
170898

> <PUBCHEM_COMPOUND_CANONICALIZED>
1

> <PUBCHEM_CACTVS_COMPLEXITY>
373

> <PUBCHEM_CACTVS_HBOND_ACCEPTOR>
3

> <PUBCHEM_CACTVS_HBOND_DONOR>
1

> <PUBCHEM_CACTVS_ROTATABLE_BOND>
9

> <PUBCHEM_CACTVS_SUBSKEYS>
AAADcfB4MAAAAAAAAAAAAAAAAAAAAAAAAAAwAAAAAAAAAAABAAAAGgAACAAADgSgmAIyDoAABgCIAiDSCAACCAAgIAAIiAEGCIgMJjKEMRqCeCCkwBEIqAfCwPAPoAACAAAIAABAAAQAABAAAAAAAAAAAA==

> <PUBCHEM_IUPAC_OPENEYE_NAME>
4-[2,4-bis(1,1-dimethylpropyl)phenoxy]butanoic acid

> <PUBCHEM_IUPAC_CAS_NAME>
4-[2,4-bis(2-methylbutan-2-yl)phenoxy]butanoic acid

> <PUBCHEM_IUPAC_NAME_MARKUP>
4-[2,4-bis(2-methylbutan-2-yl)phenoxy]butanoic acid

> <PUBCHEM_IUPAC_NAME>
4-[2,4-bis(2-methylbutan-2-yl)phenoxy]butanoic acid

> <PUBCHEM_IUPAC_SYSTEMATIC_NAME>
4-[2,4-bis(2-methylbutan-2-yl)phenoxy]butanoic acid

> <PUBCHEM_IUPAC_TRADITIONAL_NAME>
4-(2,4-ditert-amylphenoxy)butyric acid

> <PUBCHEM_IUPAC_INCHI>
InChI=1S/C20H32O3/c1-7-19(3,4)15-11-12-17(23-13-9-10-18(21)22)16(14-15)20(5,6)8-2/h11-12,14H,7-10,13H2,1-6H3,(H,21,22)

> <PUBCHEM_IUPAC_INCHIKEY>
LZSDVFDKDUZVFK-UHFFFAOYSA-N

> <PUBCHEM_XLOGP3_AA>
6.2

> <PUBCHEM_EXACT_MASS>
320.23514488

> <PUBCHEM_MOLECULAR_FORMULA>
C20H32O3

> <PUBCHEM_MOLECULAR_WEIGHT>
320.5

> <PUBCHEM_SMILES>
CCC(C)(C)C1=CC(=C(C=C1)OCCCC(=O)O)C(C)(C)CC

> <PUBCHEM_CONNECTIVITY_SMILES>
CCC(C)(C)C1=CC(=C(C=C1)OCCCC(=O)O)C(C)(C)CC

> <PUBCHEM_CACTVS_TPSA>
46.5

> <PUBCHEM_MONOISOTOPIC_WEIGHT>
320.23514488

> <PUBCHEM_TOTAL_CHARGE>
0

> <PUBCHEM_HEAVY_ATOM_COUNT>
23

> <PUBCHEM_ATOM_DEF_STEREO_COUNT>
0

> <PUBCHEM_ATOM_UDEF_STEREO_COUNT>
0

> <PUBCHEM_BOND_DEF_STEREO_COUNT>
0

> <PUBCHEM_BOND_UDEF_STEREO_COUNT>
0

> <PUBCHEM_ISOTOPIC_ATOM_COUNT>
0

> <PUBCHEM_COMPONENT_COUNT>
1

> <PUBCHEM_CACTVS_TAUTO_COUNT>
-1

> <PUBCHEM_COORDINATE_TYPE>
1
5
255

> <PUBCHEM_BONDANNOTATIONS>
13  17  8
16  17  8
6  13  8
6  9  8
7  16  8
7  9  8

$$$$
