17163
  -OEChem-05122609522D

 47 47  0     1  0  0  0  0  0999 V2000
    8.5622   -5.6830    0.0000 O   0  0  0  0  0  0  0  0  0  0  0  0
    7.1962   -3.3170    0.0000 O   0  0  0  0  0  0  0  0  0  0  0  0
    8.0622   -4.8170    0.0000 C   0  0  3  0  0  0  0  0  0  0  0  0
    4.5981    1.1830    0.0000 C   0  0  0  0  0  0  0  0  0  0  0  0
    4.5981    0.1830    0.0000 C   0  0  0  0  0  0  0  0  0  0  0  0
    3.7321    1.6830    0.0000 C   0  0  0  0  0  0  0  0  0  0  0  0
    5.4641   -0.3170    0.0000 C   0  0  0  0  0  0  0  0  0  0  0  0
    3.7321    2.6830    0.0000 C   0  0  0  0  0  0  0  0  0  0  0  0
    5.4641   -1.3170    0.0000 C   0  0  0  0  0  0  0  0  0  0  0  0
    9.0622   -4.8170    0.0000 C   0  0  0  0  0  0  0  0  0  0  0  0
    6.3301   -1.8170    0.0000 C   0  0  0  0  0  0  0  0  0  0  0  0
    2.8660    3.1830    0.0000 C   0  0  0  0  0  0  0  0  0  0  0  0
    7.1962   -4.3170    0.0000 C   0  0  0  0  0  0  0  0  0  0  0  0
    6.3301   -2.8170    0.0000 C   0  0  0  0  0  0  0  0  0  0  0  0
    2.8660    4.1830    0.0000 C   0  0  0  0  0  0  0  0  0  0  0  0
    2.0000    4.6830    0.0000 C   0  0  0  0  0  0  0  0  0  0  0  0
    2.0000    5.6830    0.0000 C   0  0  0  0  0  0  0  0  0  0  0  0
    7.6238   -5.2554    0.0000 H   0  0  0  0  0  0  0  0  0  0  0  0
    5.2087    1.0754    0.0000 H   0  0  0  0  0  0  0  0  0  0  0  0
    4.8101    1.7656    0.0000 H   0  0  0  0  0  0  0  0  0  0  0  0
    3.9875    0.2907    0.0000 H   0  0  0  0  0  0  0  0  0  0  0  0
    4.3860   -0.3996    0.0000 H   0  0  0  0  0  0  0  0  0  0  0  0
    3.1215    1.7907    0.0000 H   0  0  0  0  0  0  0  0  0  0  0  0
    3.5200    1.1004    0.0000 H   0  0  0  0  0  0  0  0  0  0  0  0
    6.0747   -0.4246    0.0000 H   0  0  0  0  0  0  0  0  0  0  0  0
    5.6762    0.2656    0.0000 H   0  0  0  0  0  0  0  0  0  0  0  0
    4.3426    2.5754    0.0000 H   0  0  0  0  0  0  0  0  0  0  0  0
    3.9441    3.2656    0.0000 H   0  0  0  0  0  0  0  0  0  0  0  0
    4.8535   -1.2093    0.0000 H   0  0  0  0  0  0  0  0  0  0  0  0
    5.2521   -1.8996    0.0000 H   0  0  0  0  0  0  0  0  0  0  0  0
    9.6448   -5.0290    0.0000 H   0  0  0  0  0  0  0  0  0  0  0  0
    9.1698   -4.2064    0.0000 H   0  0  0  0  0  0  0  0  0  0  0  0
    6.9407   -1.9247    0.0000 H   0  0  0  0  0  0  0  0  0  0  0  0
    6.5422   -1.2344    0.0000 H   0  0  0  0  0  0  0  0  0  0  0  0
    2.2554    3.2907    0.0000 H   0  0  0  0  0  0  0  0  0  0  0  0
    2.6540    2.6004    0.0000 H   0  0  0  0  0  0  0  0  0  0  0  0
    6.5856   -4.2093    0.0000 H   0  0  0  0  0  0  0  0  0  0  0  0
    6.9841   -4.8996    0.0000 H   0  0  0  0  0  0  0  0  0  0  0  0
    5.7196   -2.7093    0.0000 H   0  0  0  0  0  0  0  0  0  0  0  0
    6.1181   -3.3996    0.0000 H   0  0  0  0  0  0  0  0  0  0  0  0
    3.4766    4.0754    0.0000 H   0  0  0  0  0  0  0  0  0  0  0  0
    3.0781    4.7656    0.0000 H   0  0  0  0  0  0  0  0  0  0  0  0
    1.3894    4.7907    0.0000 H   0  0  0  0  0  0  0  0  0  0  0  0
    1.7880    4.1004    0.0000 H   0  0  0  0  0  0  0  0  0  0  0  0
    2.6200    5.6830    0.0000 H   0  0  0  0  0  0  0  0  0  0  0  0
    2.0000    6.3030    0.0000 H   0  0  0  0  0  0  0  0  0  0  0  0
    1.3800    5.6830    0.0000 H   0  0  0  0  0  0  0  0  0  0  0  0
  1  3  1  0  0  0  0
  1 10  1  0  0  0  0
  2 13  1  0  0  0  0
  2 14  1  0  0  0  0
  3 10  1  0  0  0  0
  3 13  1  0  0  0  0
  3 18  1  0  0  0  0
  4  5  1  0  0  0  0
  4  6  1  0  0  0  0
  4 19  1  0  0  0  0
  4 20  1  0  0  0  0
  5  7  1  0  0  0  0
  5 21  1  0  0  0  0
  5 22  1  0  0  0  0
  6  8  1  0  0  0  0
  6 23  1  0  0  0  0
  6 24  1  0  0  0  0
  7  9  1  0  0  0  0
  7 25  1  0  0  0  0
  7 26  1  0  0  0  0
  8 12  1  0  0  0  0
  8 27  1  0  0  0  0
  8 28  1  0  0  0  0
  9 11  1  0  0  0  0
  9 29  1  0  0  0  0
  9 30  1  0  0  0  0
 10 31  1  0  0  0  0
 10 32  1  0  0  0  0
 11 14  1  0  0  0  0
 11 33  1  0  0  0  0
 11 34  1  0  0  0  0
 12 15  1  0  0  0  0
 12 35  1  0  0  0  0
 12 36  1  0  0  0  0
 13 37  1  0  0  0  0
 13 38  1  0  0  0  0
 14 39  1  0  0  0  0
 14 40  1  0  0  0  0
 15 16  1  0  0  0  0
 15 41  1  0  0  0  0
 15 42  1  0  0  0  0
 16 17  1  0  0  0  0
 16 43  1  0  0  0  0
 16 44  1  0  0  0  0
 17 45  1  0  0  0  0
 17 46  1  0  0  0  0
 17 47  1  0  0  0  0
M  END
> <PUBCHEM_COMPOUND_CID>
17163

> <PUBCHEM_COMPOUND_CANONICALIZED>
1

> <PUBCHEM_CACTVS_COMPLEXITY>
159

> <PUBCHEM_CACTVS_HBOND_ACCEPTOR>
2

> <PUBCHEM_CACTVS_HBOND_DONOR>
0

> <PUBCHEM_CACTVS_ROTATABLE_BOND>
13

> <PUBCHEM_CACTVS_SUBSKEYS>
AAADceBwMAAAAAAAAAAAAAAAEgAAAAAAAAAAAAAAAAAAAAAAAAAAGgAAAAAACBSggAICAAAABAAAAAAAAAAAAAAAAAAAAAAAAAABAAIAAAACAAAFAAACAAGAwKAAAAAAAAAAAAAAAAAAAAAAAAAAAAAAAA==

> <PUBCHEM_IUPAC_OPENEYE_NAME>
2-(dodecoxymethyl)oxirane

> <PUBCHEM_IUPAC_CAS_NAME>
2-(dodecoxymethyl)oxirane

> <PUBCHEM_IUPAC_NAME_MARKUP>
2-(dodecoxymethyl)oxirane

> <PUBCHEM_IUPAC_NAME>
2-(dodecoxymethyl)oxirane

> <PUBCHEM_IUPAC_SYSTEMATIC_NAME>
2-(dodecoxymethyl)oxirane

> <PUBCHEM_IUPAC_TRADITIONAL_NAME>
2-(lauryloxymethyl)oxirane

> <PUBCHEM_IUPAC_INCHI>
InChI=1S/C15H30O2/c1-2-3-4-5-6-7-8-9-10-11-12-16-13-15-14-17-15/h15H,2-14H2,1H3

> <PUBCHEM_IUPAC_INCHIKEY>
VMSIYTPWZLSMOH-UHFFFAOYSA-N

> <PUBCHEM_XLOGP3_AA>
5.4

> <PUBCHEM_EXACT_MASS>
242.224580195

> <PUBCHEM_MOLECULAR_FORMULA>
C15H30O2

> <PUBCHEM_MOLECULAR_WEIGHT>
242.40

> <PUBCHEM_SMILES>
CCCCCCCCCCCCOCC1CO1

> <PUBCHEM_CONNECTIVITY_SMILES>
CCCCCCCCCCCCOCC1CO1

> <PUBCHEM_CACTVS_TPSA>
21.8

> <PUBCHEM_MONOISOTOPIC_WEIGHT>
242.224580195

> <PUBCHEM_TOTAL_CHARGE>
0

> <PUBCHEM_HEAVY_ATOM_COUNT>
17

> <PUBCHEM_ATOM_DEF_STEREO_COUNT>
0

> <PUBCHEM_ATOM_UDEF_STEREO_COUNT>
1

> <PUBCHEM_BOND_DEF_STEREO_COUNT>
0

> <PUBCHEM_BOND_UDEF_STEREO_COUNT>
0

> <PUBCHEM_ISOTOPIC_ATOM_COUNT>
0

> <PUBCHEM_COMPONENT_COUNT>
1

> <PUBCHEM_CACTVS_TAUTO_COUNT>
-1

> <PUBCHEM_COORDINATE_TYPE>
1
5
255

> <PUBCHEM_BONDANNOTATIONS>
3  13  3

$$$$
