17161
  -OEChem-05122609402D

 36 36  0     0  0  0  0  0  0999 V2000
    5.4641   -1.0000    0.0000 O   0  0  0  0  0  0  0  0  0  0  0  0
    2.0000    1.0000    0.0000 O   0  0  0  0  0  0  0  0  0  0  0  0
    3.7321   -2.0000    0.0000 C   0  0  0  0  0  0  0  0  0  0  0  0
    3.7321    2.0000    0.0000 C   0  0  0  0  0  0  0  0  0  0  0  0
    3.7321   -1.0000    0.0000 C   0  0  0  0  0  0  0  0  0  0  0  0
    3.7321    1.0000    0.0000 C   0  0  0  0  0  0  0  0  0  0  0  0
    3.7321   -3.0000    0.0000 C   0  0  0  0  0  0  0  0  0  0  0  0
    2.7321   -2.0000    0.0000 C   0  0  0  0  0  0  0  0  0  0  0  0
    4.7321   -2.0000    0.0000 C   0  0  0  0  0  0  0  0  0  0  0  0
    3.7321    3.0000    0.0000 C   0  0  0  0  0  0  0  0  0  0  0  0
    4.7321    2.0000    0.0000 C   0  0  0  0  0  0  0  0  0  0  0  0
    2.7321    2.0000    0.0000 C   0  0  0  0  0  0  0  0  0  0  0  0
    4.5981   -0.5000    0.0000 C   0  0  0  0  0  0  0  0  0  0  0  0
    2.8660    0.5000    0.0000 C   0  0  0  0  0  0  0  0  0  0  0  0
    4.5981    0.5000    0.0000 C   0  0  0  0  0  0  0  0  0  0  0  0
    2.8660   -0.5000    0.0000 C   0  0  0  0  0  0  0  0  0  0  0  0
    3.1121   -3.0000    0.0000 H   0  0  0  0  0  0  0  0  0  0  0  0
    3.7321   -3.6200    0.0000 H   0  0  0  0  0  0  0  0  0  0  0  0
    4.3521   -3.0000    0.0000 H   0  0  0  0  0  0  0  0  0  0  0  0
    2.7321   -1.3800    0.0000 H   0  0  0  0  0  0  0  0  0  0  0  0
    2.1121   -2.0000    0.0000 H   0  0  0  0  0  0  0  0  0  0  0  0
    2.7321   -2.6200    0.0000 H   0  0  0  0  0  0  0  0  0  0  0  0
    4.7321   -2.6200    0.0000 H   0  0  0  0  0  0  0  0  0  0  0  0
    5.3521   -2.0000    0.0000 H   0  0  0  0  0  0  0  0  0  0  0  0
    4.7321   -1.3800    0.0000 H   0  0  0  0  0  0  0  0  0  0  0  0
    4.3521    3.0000    0.0000 H   0  0  0  0  0  0  0  0  0  0  0  0
    3.7321    3.6200    0.0000 H   0  0  0  0  0  0  0  0  0  0  0  0
    3.1121    3.0000    0.0000 H   0  0  0  0  0  0  0  0  0  0  0  0
    4.7321    1.3800    0.0000 H   0  0  0  0  0  0  0  0  0  0  0  0
    5.3521    2.0000    0.0000 H   0  0  0  0  0  0  0  0  0  0  0  0
    4.7321    2.6200    0.0000 H   0  0  0  0  0  0  0  0  0  0  0  0
    2.7321    2.6200    0.0000 H   0  0  0  0  0  0  0  0  0  0  0  0
    2.1121    2.0000    0.0000 H   0  0  0  0  0  0  0  0  0  0  0  0
    2.7321    1.3800    0.0000 H   0  0  0  0  0  0  0  0  0  0  0  0
    5.1350    0.8100    0.0000 H   0  0  0  0  0  0  0  0  0  0  0  0
    2.3291   -0.8100    0.0000 H   0  0  0  0  0  0  0  0  0  0  0  0
  1 13  2  0  0  0  0
  2 14  2  0  0  0  0
  3  5  1  0  0  0  0
  3  7  1  0  0  0  0
  3  8  1  0  0  0  0
  3  9  1  0  0  0  0
  4  6  1  0  0  0  0
  4 10  1  0  0  0  0
  4 11  1  0  0  0  0
  4 12  1  0  0  0  0
  5 13  1  0  0  0  0
  5 16  2  0  0  0  0
  6 14  1  0  0  0  0
  6 15  2  0  0  0  0
  7 17  1  0  0  0  0
  7 18  1  0  0  0  0
  7 19  1  0  0  0  0
  8 20  1  0  0  0  0
  8 21  1  0  0  0  0
  8 22  1  0  0  0  0
  9 23  1  0  0  0  0
  9 24  1  0  0  0  0
  9 25  1  0  0  0  0
 10 26  1  0  0  0  0
 10 27  1  0  0  0  0
 10 28  1  0  0  0  0
 11 29  1  0  0  0  0
 11 30  1  0  0  0  0
 11 31  1  0  0  0  0
 12 32  1  0  0  0  0
 12 33  1  0  0  0  0
 12 34  1  0  0  0  0
 13 15  1  0  0  0  0
 14 16  1  0  0  0  0
 15 35  1  0  0  0  0
 16 36  1  0  0  0  0
M  END
> <PUBCHEM_COMPOUND_CID>
17161

> <PUBCHEM_COMPOUND_CANONICALIZED>
1

> <PUBCHEM_CACTVS_COMPLEXITY>
355

> <PUBCHEM_CACTVS_HBOND_ACCEPTOR>
2

> <PUBCHEM_CACTVS_HBOND_DONOR>
0

> <PUBCHEM_CACTVS_ROTATABLE_BOND>
2

> <PUBCHEM_CACTVS_SUBSKEYS>
AAADceBwMAAAAAAAAAAAAAAAAAAAAAAAAAAgAAAAAAAAAAAAAAAAGgAAAAAADgSAgAACAAAAAACIAqBSAAAAAAAgAAAACAEAAEgAABIAAAAAAAAAgAAIAYIAAAANAAAAAAAAAAAAAAAAAAAAAAAAAAAAAA==

> <PUBCHEM_IUPAC_OPENEYE_NAME>
2,5-ditert-butyl-1,4-benzoquinone

> <PUBCHEM_IUPAC_CAS_NAME>
2,5-ditert-butylcyclohexa-2,5-diene-1,4-dione

> <PUBCHEM_IUPAC_NAME_MARKUP>
2,5-di<I>tert</I>-butylcyclohexa-2,5-diene-1,4-dione

> <PUBCHEM_IUPAC_NAME>
2,5-ditert-butylcyclohexa-2,5-diene-1,4-dione

> <PUBCHEM_IUPAC_SYSTEMATIC_NAME>
2,5-ditert-butylcyclohexa-2,5-diene-1,4-dione

> <PUBCHEM_IUPAC_TRADITIONAL_NAME>
2,5-ditert-butyl-p-benzoquinone

> <PUBCHEM_IUPAC_INCHI>
InChI=1S/C14H20O2/c1-13(2,3)9-7-12(16)10(8-11(9)15)14(4,5)6/h7-8H,1-6H3

> <PUBCHEM_IUPAC_INCHIKEY>
ZZYASVWWDLJXIM-UHFFFAOYSA-N

> <PUBCHEM_XLOGP3_AA>
3.4

> <PUBCHEM_EXACT_MASS>
220.146329876

> <PUBCHEM_MOLECULAR_FORMULA>
C14H20O2

> <PUBCHEM_MOLECULAR_WEIGHT>
220.31

> <PUBCHEM_SMILES>
CC(C)(C)C1=CC(=O)C(=CC1=O)C(C)(C)C

> <PUBCHEM_CONNECTIVITY_SMILES>
CC(C)(C)C1=CC(=O)C(=CC1=O)C(C)(C)C

> <PUBCHEM_CACTVS_TPSA>
34.1

> <PUBCHEM_MONOISOTOPIC_WEIGHT>
220.146329876

> <PUBCHEM_TOTAL_CHARGE>
0

> <PUBCHEM_HEAVY_ATOM_COUNT>
16

> <PUBCHEM_ATOM_DEF_STEREO_COUNT>
0

> <PUBCHEM_ATOM_UDEF_STEREO_COUNT>
0

> <PUBCHEM_BOND_DEF_STEREO_COUNT>
0

> <PUBCHEM_BOND_UDEF_STEREO_COUNT>
0

> <PUBCHEM_ISOTOPIC_ATOM_COUNT>
0

> <PUBCHEM_COMPONENT_COUNT>
1

> <PUBCHEM_CACTVS_TAUTO_COUNT>
-1

> <PUBCHEM_COORDINATE_TYPE>
1
5
255

$$$$
