172737738
  -OEChem-05122609552D

 42 43  0     1  0  0  0  0  0999 V2000
    2.5664   -3.0168    0.0000 O   0  0  0  0  0  0  0  0  0  0  0  0
    4.3265   -1.1200    0.0000 C   0  0  1  0  0  0  0  0  0  0  0  0
    4.3265   -2.1200    0.0000 C   0  0  2  0  0  0  0  0  0  0  0  0
    5.1930   -1.6200    0.0000 C   0  0  0  0  0  0  0  0  0  0  0  0
    3.3754   -2.4290    0.0000 C   0  0  1  0  0  0  0  0  0  0  0  0
    3.3754   -0.8109    0.0000 C   0  0  0  0  0  0  0  0  0  0  0  0
    4.3265   -0.1200    0.0000 C   0  0  1  0  0  0  0  0  0  0  0  0
    2.7876   -1.6200    0.0000 C   0  0  0  0  0  0  0  0  0  0  0  0
    3.6844   -3.3800    0.0000 C   0  0  0  0  0  0  0  0  0  0  0  0
    5.1925    0.3800    0.0000 C   0  0  0  0  0  0  0  0  0  0  0  0
    3.4605    0.3800    0.0000 C   0  0  0  0  0  0  0  0  0  0  0  0
    5.1925    1.3800    0.0000 C   0  0  0  0  0  0  0  0  0  0  0  0
    6.0585    1.8800    0.0000 C   0  0  0  0  0  0  0  0  0  0  0  0
    6.0585    2.8800    0.0000 C   0  0  0  0  0  0  0  0  0  0  0  0
    6.9246    3.3800    0.0000 C   0  0  0  0  0  0  0  0  0  0  0  0
    5.1925    3.3800    0.0000 C   0  0  0  0  0  0  0  0  0  0  0  0
    4.6721   -2.8965    0.0000 H   0  0  0  0  0  0  0  0  0  0  0  0
    5.5915   -2.0949    0.0000 H   0  0  0  0  0  0  0  0  0  0  0  0
    5.5915   -1.1450    0.0000 H   0  0  0  0  0  0  0  0  0  0  0  0
    3.6276   -0.2445    0.0000 H   0  0  0  0  0  0  0  0  0  0  0  0
    2.8385   -0.5009    0.0000 H   0  0  0  0  0  0  0  0  0  0  0  0
    4.3265    0.5000    0.0000 H   0  0  0  0  0  0  0  0  0  0  0  0
    2.3269   -1.2051    0.0000 H   0  0  0  0  0  0  0  0  0  0  0  0
    2.3269   -2.0348    0.0000 H   0  0  0  0  0  0  0  0  0  0  0  0
    3.0948   -3.5716    0.0000 H   0  0  0  0  0  0  0  0  0  0  0  0
    3.8760   -3.9697    0.0000 H   0  0  0  0  0  0  0  0  0  0  0  0
    4.2741   -3.1885    0.0000 H   0  0  0  0  0  0  0  0  0  0  0  0
    5.4046   -0.2026    0.0000 H   0  0  0  0  0  0  0  0  0  0  0  0
    5.8031    0.4877    0.0000 H   0  0  0  0  0  0  0  0  0  0  0  0
    3.7705    0.9170    0.0000 H   0  0  0  0  0  0  0  0  0  0  0  0
    2.9235    0.6900    0.0000 H   0  0  0  0  0  0  0  0  0  0  0  0
    3.1505   -0.1569    0.0000 H   0  0  0  0  0  0  0  0  0  0  0  0
    2.0000   -2.7646    0.0000 H   0  0  0  0  0  0  0  0  0  0  0  0
    4.9804    1.9627    0.0000 H   0  0  0  0  0  0  0  0  0  0  0  0
    4.5819    1.2724    0.0000 H   0  0  0  0  0  0  0  0  0  0  0  0
    6.5955    1.5700    0.0000 H   0  0  0  0  0  0  0  0  0  0  0  0
    7.2346    2.8431    0.0000 H   0  0  0  0  0  0  0  0  0  0  0  0
    7.4615    3.6900    0.0000 H   0  0  0  0  0  0  0  0  0  0  0  0
    6.6146    3.9170    0.0000 H   0  0  0  0  0  0  0  0  0  0  0  0
    5.5025    3.9170    0.0000 H   0  0  0  0  0  0  0  0  0  0  0  0
    4.6556    3.6900    0.0000 H   0  0  0  0  0  0  0  0  0  0  0  0
    4.8825    2.8431    0.0000 H   0  0  0  0  0  0  0  0  0  0  0  0
  5  1  1  6  0  0  0
  1 33  1  0  0  0  0
  2  3  1  0  0  0  0
  2  4  1  6  0  0  0
  2  6  1  0  0  0  0
  2  7  1  0  0  0  0
  3  4  1  0  0  0  0
  3  5  1  0  0  0  0
  3 17  1  1  0  0  0
  4 18  1  0  0  0  0
  4 19  1  0  0  0  0
  5  8  1  0  0  0  0
  5  9  1  0  0  0  0
  6  8  1  0  0  0  0
  6 20  1  0  0  0  0
  6 21  1  0  0  0  0
  7 10  1  0  0  0  0
  7 11  1  6  0  0  0
  7 22  1  0  0  0  0
  8 23  1  0  0  0  0
  8 24  1  0  0  0  0
  9 25  1  0  0  0  0
  9 26  1  0  0  0  0
  9 27  1  0  0  0  0
 10 12  1  0  0  0  0
 10 28  1  0  0  0  0
 10 29  1  0  0  0  0
 11 30  1  0  0  0  0
 11 31  1  0  0  0  0
 11 32  1  0  0  0  0
 12 13  1  0  0  0  0
 12 34  1  0  0  0  0
 12 35  1  0  0  0  0
 13 14  2  0  0  0  0
 13 36  1  0  0  0  0
 14 15  1  0  0  0  0
 14 16  1  0  0  0  0
 15 37  1  0  0  0  0
 15 38  1  0  0  0  0
 15 39  1  0  0  0  0
 16 40  1  0  0  0  0
 16 41  1  0  0  0  0
 16 42  1  0  0  0  0
M  END
> <PUBCHEM_COMPOUND_CID>
172737738

> <PUBCHEM_COMPOUND_CANONICALIZED>
1

> <PUBCHEM_CACTVS_COMPLEXITY>
303

> <PUBCHEM_CACTVS_HBOND_ACCEPTOR>
1

> <PUBCHEM_CACTVS_HBOND_DONOR>
1

> <PUBCHEM_CACTVS_ROTATABLE_BOND>
4

> <PUBCHEM_CACTVS_SUBSKEYS>
AAADceBwIAAAAAAAAAAAAAAAGAAAAYAAAAAwAAAAAAAAAAAAAAAAGgAACAAAD0SAgAACAAAAAgCAAiBCAAAAAAAgAAAACAAAAAgAAAIAAQAAQAAEgAAIAAOAwPAPgAAAAAAAAADAAAAAAAAAAYAADAAAAA==

> <PUBCHEM_IUPAC_OPENEYE_NAME>
(1S,2R,5R)-5-[(1R)-1,5-dimethylhex-4-enyl]-2-methyl-bicyclo[3.1.0]hexan-2-ol

> <PUBCHEM_IUPAC_CAS_NAME>
(1S,2R,5R)-2-methyl-5-[(2R)-6-methylhept-5-en-2-yl]-2-bicyclo[3.1.0]hexanol

> <PUBCHEM_IUPAC_NAME_MARKUP>
(1<I>S</I>,2<I>R</I>,5<I>R</I>)-2-methyl-5-[(2<I>R</I>)-6-methylhept-5-en-2-yl]bicyclo[3.1.0]hexan-2-ol

> <PUBCHEM_IUPAC_NAME>
(1S,2R,5R)-2-methyl-5-[(2R)-6-methylhept-5-en-2-yl]bicyclo[3.1.0]hexan-2-ol

> <PUBCHEM_IUPAC_SYSTEMATIC_NAME>
(1S,2R,5R)-2-methyl-5-[(2R)-6-methylhept-5-en-2-yl]bicyclo[3.1.0]hexan-2-ol

> <PUBCHEM_IUPAC_TRADITIONAL_NAME>
(1S,2R,5R)-5-[(1R)-1,5-dimethylhex-4-enyl]-2-methyl-bicyclo[3.1.0]hexan-2-ol

> <PUBCHEM_IUPAC_INCHI>
InChI=1S/C15H26O/c1-11(2)6-5-7-12(3)15-9-8-14(4,16)13(15)10-15/h6,12-13,16H,5,7-10H2,1-4H3/t12-,13-,14-,15-/m1/s1

> <PUBCHEM_IUPAC_INCHIKEY>
IRDFGGRWKUKANK-KBUPBQIOSA-N

> <PUBCHEM_XLOGP3_AA>
4.1

> <PUBCHEM_EXACT_MASS>
222.198365449

> <PUBCHEM_MOLECULAR_FORMULA>
C15H26O

> <PUBCHEM_MOLECULAR_WEIGHT>
222.37

> <PUBCHEM_SMILES>
C[C@H](CCC=C(C)C)[C@]12CC[C@@]([C@H]1C2)(C)O

> <PUBCHEM_CONNECTIVITY_SMILES>
CC(CCC=C(C)C)C12CCC(C1C2)(C)O

> <PUBCHEM_CACTVS_TPSA>
20.2

> <PUBCHEM_MONOISOTOPIC_WEIGHT>
222.198365449

> <PUBCHEM_TOTAL_CHARGE>
0

> <PUBCHEM_HEAVY_ATOM_COUNT>
16

> <PUBCHEM_ATOM_DEF_STEREO_COUNT>
4

> <PUBCHEM_ATOM_UDEF_STEREO_COUNT>
0

> <PUBCHEM_BOND_DEF_STEREO_COUNT>
0

> <PUBCHEM_BOND_UDEF_STEREO_COUNT>
0

> <PUBCHEM_ISOTOPIC_ATOM_COUNT>
0

> <PUBCHEM_COMPONENT_COUNT>
1

> <PUBCHEM_CACTVS_TAUTO_COUNT>
-1

> <PUBCHEM_COORDINATE_TYPE>
1
5
255

> <PUBCHEM_BONDANNOTATIONS>
5  1  6
2  4  6
3  17  5
7  11  6

$$$$
