17369
  -OEChem-05122608272D

 22 22  0     0  0  0  0  0  0999 V2000
    2.0000   -0.7849    0.0000 O   0  0  0  0  0  0  0  0  0  0  0  0
    3.6828   -0.5953    0.0000 N   0  0  0  0  0  0  0  0  0  0  0  0
    4.1828    1.5953    0.0000 C   0  0  0  0  0  0  0  0  0  0  0  0
    4.8063    0.8135    0.0000 C   0  0  0  0  0  0  0  0  0  0  0  0
    3.1828    1.5953    0.0000 C   0  0  0  0  0  0  0  0  0  0  0  0
    4.5838   -0.1614    0.0000 C   0  0  0  0  0  0  0  0  0  0  0  0
    2.5593    0.8135    0.0000 C   0  0  0  0  0  0  0  0  0  0  0  0
    2.7818   -0.1614    0.0000 C   0  0  0  0  0  0  0  0  0  0  0  0
    3.6828   -1.5953    0.0000 C   0  0  0  0  0  0  0  0  0  0  0  0
    4.7414    1.8643    0.0000 H   0  0  0  0  0  0  0  0  0  0  0  0
    4.0448    2.1998    0.0000 H   0  0  0  0  0  0  0  0  0  0  0  0
    5.3649    0.5445    0.0000 H   0  0  0  0  0  0  0  0  0  0  0  0
    5.1929    1.2982    0.0000 H   0  0  0  0  0  0  0  0  0  0  0  0
    3.3208    2.1998    0.0000 H   0  0  0  0  0  0  0  0  0  0  0  0
    2.6242    1.8643    0.0000 H   0  0  0  0  0  0  0  0  0  0  0  0
    4.7217   -0.7659    0.0000 H   0  0  0  0  0  0  0  0  0  0  0  0
    5.2038   -0.1614    0.0000 H   0  0  0  0  0  0  0  0  0  0  0  0
    2.1728    1.2982    0.0000 H   0  0  0  0  0  0  0  0  0  0  0  0
    2.0007    0.5445    0.0000 H   0  0  0  0  0  0  0  0  0  0  0  0
    3.0628   -1.5953    0.0000 H   0  0  0  0  0  0  0  0  0  0  0  0
    3.6828   -2.2153    0.0000 H   0  0  0  0  0  0  0  0  0  0  0  0
    4.3028   -1.5953    0.0000 H   0  0  0  0  0  0  0  0  0  0  0  0
  1  8  2  0  0  0  0
  2  6  1  0  0  0  0
  2  8  1  0  0  0  0
  2  9  1  0  0  0  0
  3  4  1  0  0  0  0
  3  5  1  0  0  0  0
  3 10  1  0  0  0  0
  3 11  1  0  0  0  0
  4  6  1  0  0  0  0
  4 12  1  0  0  0  0
  4 13  1  0  0  0  0
  5  7  1  0  0  0  0
  5 14  1  0  0  0  0
  5 15  1  0  0  0  0
  6 16  1  0  0  0  0
  6 17  1  0  0  0  0
  7  8  1  0  0  0  0
  7 18  1  0  0  0  0
  7 19  1  0  0  0  0
  9 20  1  0  0  0  0
  9 21  1  0  0  0  0
  9 22  1  0  0  0  0
M  END
> <PUBCHEM_COMPOUND_CID>
17369

> <PUBCHEM_COMPOUND_CANONICALIZED>
1

> <PUBCHEM_CACTVS_COMPLEXITY>
111

> <PUBCHEM_CACTVS_HBOND_ACCEPTOR>
1

> <PUBCHEM_CACTVS_HBOND_DONOR>
0

> <PUBCHEM_CACTVS_ROTATABLE_BOND>
0

> <PUBCHEM_CACTVS_SUBSKEYS>
AAADccBiIAAAAAAAAAAAAAAAAAAAAAAAAAAAAAAABYAAAAAAAAAAHgAAAAAACADBgAQCAAMAAAAIAAEQEAAAAAAAAAAAAAEIAAAAABIAgAAEAAAABgCAAAEYCAAAAAAAAAAAAAAAAAAAAAAAAAAAAAAAAA==

> <PUBCHEM_IUPAC_OPENEYE_NAME>
1-methylazepan-2-one

> <PUBCHEM_IUPAC_CAS_NAME>
1-methyl-2-azepanone

> <PUBCHEM_IUPAC_NAME_MARKUP>
1-methylazepan-2-one

> <PUBCHEM_IUPAC_NAME>
1-methylazepan-2-one

> <PUBCHEM_IUPAC_SYSTEMATIC_NAME>
1-methylazepan-2-one

> <PUBCHEM_IUPAC_TRADITIONAL_NAME>
1-methylazepan-2-one

> <PUBCHEM_IUPAC_INCHI>
InChI=1S/C7H13NO/c1-8-6-4-2-3-5-7(8)9/h2-6H2,1H3

> <PUBCHEM_IUPAC_INCHIKEY>
ZWXPDGCFMMFNRW-UHFFFAOYSA-N

> <PUBCHEM_XLOGP3>
0.2

> <PUBCHEM_EXACT_MASS>
127.099714038

> <PUBCHEM_MOLECULAR_FORMULA>
C7H13NO

> <PUBCHEM_MOLECULAR_WEIGHT>
127.18

> <PUBCHEM_SMILES>
CN1CCCCCC1=O

> <PUBCHEM_CONNECTIVITY_SMILES>
CN1CCCCCC1=O

> <PUBCHEM_CACTVS_TPSA>
20.3

> <PUBCHEM_MONOISOTOPIC_WEIGHT>
127.099714038

> <PUBCHEM_TOTAL_CHARGE>
0

> <PUBCHEM_HEAVY_ATOM_COUNT>
9

> <PUBCHEM_ATOM_DEF_STEREO_COUNT>
0

> <PUBCHEM_ATOM_UDEF_STEREO_COUNT>
0

> <PUBCHEM_BOND_DEF_STEREO_COUNT>
0

> <PUBCHEM_BOND_UDEF_STEREO_COUNT>
0

> <PUBCHEM_ISOTOPIC_ATOM_COUNT>
0

> <PUBCHEM_COMPONENT_COUNT>
1

> <PUBCHEM_CACTVS_TAUTO_COUNT>
-1

> <PUBCHEM_COORDINATE_TYPE>
1
5
255

$$$$
