17578
  -OEChem-05122610012D

 47 48  0     0  0  0  0  0  0999 V2000
    2.8660    0.7500    0.0000 O   0  0  0  0  0  0  0  0  0  0  0  0
    4.5981    1.7500    0.0000 C   0  0  0  0  0  0  0  0  0  0  0  0
    2.8660   -1.2500    0.0000 C   0  0  0  0  0  0  0  0  0  0  0  0
    4.5981    0.7500    0.0000 C   0  0  0  0  0  0  0  0  0  0  0  0
    3.7321   -0.7500    0.0000 C   0  0  0  0  0  0  0  0  0  0  0  0
    3.7321    0.2500    0.0000 C   0  0  0  0  0  0  0  0  0  0  0  0
    5.4641    0.2500    0.0000 C   0  0  0  0  0  0  0  0  0  0  0  0
    4.5981   -1.2500    0.0000 C   0  0  0  0  0  0  0  0  0  0  0  0
    4.5981    2.7500    0.0000 C   0  0  0  0  0  0  0  0  0  0  0  0
    5.5981    1.7500    0.0000 C   0  0  0  0  0  0  0  0  0  0  0  0
    3.5981    1.7500    0.0000 C   0  0  0  0  0  0  0  0  0  0  0  0
    2.0000   -1.7500    0.0000 C   0  0  0  0  0  0  0  0  0  0  0  0
    3.3660   -2.1160    0.0000 C   0  0  0  0  0  0  0  0  0  0  0  0
    2.3660   -0.3840    0.0000 C   0  0  0  0  0  0  0  0  0  0  0  0
    5.4641   -0.7500    0.0000 C   0  0  0  0  0  0  0  0  0  0  0  0
    6.3301   -1.2500    0.0000 C   0  0  0  0  0  0  0  0  0  0  0  0
    7.1962   -0.7500    0.0000 C   0  0  0  0  0  0  0  0  0  0  0  0
    6.3301   -2.2500    0.0000 C   0  0  0  0  0  0  0  0  0  0  0  0
    8.0622   -1.2500    0.0000 C   0  0  0  0  0  0  0  0  0  0  0  0
    7.1962   -2.7500    0.0000 C   0  0  0  0  0  0  0  0  0  0  0  0
    8.0622   -2.2500    0.0000 C   0  0  0  0  0  0  0  0  0  0  0  0
    6.0010    0.5600    0.0000 H   0  0  0  0  0  0  0  0  0  0  0  0
    4.5981   -1.8700    0.0000 H   0  0  0  0  0  0  0  0  0  0  0  0
    5.2181    2.7500    0.0000 H   0  0  0  0  0  0  0  0  0  0  0  0
    4.5981    3.3700    0.0000 H   0  0  0  0  0  0  0  0  0  0  0  0
    3.9781    2.7500    0.0000 H   0  0  0  0  0  0  0  0  0  0  0  0
    5.5981    1.1300    0.0000 H   0  0  0  0  0  0  0  0  0  0  0  0
    6.2181    1.7500    0.0000 H   0  0  0  0  0  0  0  0  0  0  0  0
    5.5981    2.3700    0.0000 H   0  0  0  0  0  0  0  0  0  0  0  0
    3.5981    2.3700    0.0000 H   0  0  0  0  0  0  0  0  0  0  0  0
    2.9781    1.7500    0.0000 H   0  0  0  0  0  0  0  0  0  0  0  0
    3.5981    1.1300    0.0000 H   0  0  0  0  0  0  0  0  0  0  0  0
    1.6900   -1.2131    0.0000 H   0  0  0  0  0  0  0  0  0  0  0  0
    1.4631   -2.0600    0.0000 H   0  0  0  0  0  0  0  0  0  0  0  0
    2.3100   -2.2869    0.0000 H   0  0  0  0  0  0  0  0  0  0  0  0
    2.8291   -2.4260    0.0000 H   0  0  0  0  0  0  0  0  0  0  0  0
    3.6760   -2.6530    0.0000 H   0  0  0  0  0  0  0  0  0  0  0  0
    3.9030   -1.8060    0.0000 H   0  0  0  0  0  0  0  0  0  0  0  0
    2.9030   -0.0740    0.0000 H   0  0  0  0  0  0  0  0  0  0  0  0
    2.0560    0.1530    0.0000 H   0  0  0  0  0  0  0  0  0  0  0  0
    1.8291   -0.6940    0.0000 H   0  0  0  0  0  0  0  0  0  0  0  0
    2.8660    1.3700    0.0000 H   0  0  0  0  0  0  0  0  0  0  0  0
    7.1962   -0.1300    0.0000 H   0  0  0  0  0  0  0  0  0  0  0  0
    5.7932   -2.5600    0.0000 H   0  0  0  0  0  0  0  0  0  0  0  0
    8.5991   -0.9400    0.0000 H   0  0  0  0  0  0  0  0  0  0  0  0
    7.1962   -3.3700    0.0000 H   0  0  0  0  0  0  0  0  0  0  0  0
    8.5991   -2.5600    0.0000 H   0  0  0  0  0  0  0  0  0  0  0  0
  1  6  1  0  0  0  0
  1 42  1  0  0  0  0
  2  4  1  0  0  0  0
  2  9  1  0  0  0  0
  2 10  1  0  0  0  0
  2 11  1  0  0  0  0
  3  5  1  0  0  0  0
  3 12  1  0  0  0  0
  3 13  1  0  0  0  0
  3 14  1  0  0  0  0
  4  6  2  0  0  0  0
  4  7  1  0  0  0  0
  5  6  1  0  0  0  0
  5  8  2  0  0  0  0
  7 15  2  0  0  0  0
  7 22  1  0  0  0  0
  8 15  1  0  0  0  0
  8 23  1  0  0  0  0
  9 24  1  0  0  0  0
  9 25  1  0  0  0  0
  9 26  1  0  0  0  0
 10 27  1  0  0  0  0
 10 28  1  0  0  0  0
 10 29  1  0  0  0  0
 11 30  1  0  0  0  0
 11 31  1  0  0  0  0
 11 32  1  0  0  0  0
 12 33  1  0  0  0  0
 12 34  1  0  0  0  0
 12 35  1  0  0  0  0
 13 36  1  0  0  0  0
 13 37  1  0  0  0  0
 13 38  1  0  0  0  0
 14 39  1  0  0  0  0
 14 40  1  0  0  0  0
 14 41  1  0  0  0  0
 15 16  1  0  0  0  0
 16 17  2  0  0  0  0
 16 18  1  0  0  0  0
 17 19  1  0  0  0  0
 17 43  1  0  0  0  0
 18 20  2  0  0  0  0
 18 44  1  0  0  0  0
 19 21  2  0  0  0  0
 19 45  1  0  0  0  0
 20 21  1  0  0  0  0
 20 46  1  0  0  0  0
 21 47  1  0  0  0  0
M  END
> <PUBCHEM_COMPOUND_CID>
17578

> <PUBCHEM_COMPOUND_CANONICALIZED>
1

> <PUBCHEM_CACTVS_COMPLEXITY>
303

> <PUBCHEM_CACTVS_HBOND_ACCEPTOR>
1

> <PUBCHEM_CACTVS_HBOND_DONOR>
1

> <PUBCHEM_CACTVS_ROTATABLE_BOND>
3

> <PUBCHEM_CACTVS_SUBSKEYS>
AAADceB4IAAAAAAAAAAAAAAAAAAAAAAAAAAwYAAAAAAAAAABQAAAGgAACAAADgSAmAAyBoAAAgCAAiBCAAACAAAgIAAIiAAECIgIJiKCERKAcAAkwBEImAeAwPAPoAACAAAIAABAAAQAABAAAAAAAAAAAA==

> <PUBCHEM_IUPAC_OPENEYE_NAME>
2,6-ditert-butyl-4-phenyl-phenol

> <PUBCHEM_IUPAC_CAS_NAME>
2,6-ditert-butyl-4-phenylphenol

> <PUBCHEM_IUPAC_NAME_MARKUP>
2,6-di<I>tert</I>-butyl-4-phenylphenol

> <PUBCHEM_IUPAC_NAME>
2,6-ditert-butyl-4-phenylphenol

> <PUBCHEM_IUPAC_SYSTEMATIC_NAME>
2,6-ditert-butyl-4-phenyl-phenol

> <PUBCHEM_IUPAC_TRADITIONAL_NAME>
2,6-ditert-butyl-4-phenyl-phenol

> <PUBCHEM_IUPAC_INCHI>
InChI=1S/C20H26O/c1-19(2,3)16-12-15(14-10-8-7-9-11-14)13-17(18(16)21)20(4,5)6/h7-13,21H,1-6H3

> <PUBCHEM_IUPAC_INCHIKEY>
JIEWQZNTUPWNMX-UHFFFAOYSA-N

> <PUBCHEM_XLOGP3_AA>
6.5

> <PUBCHEM_EXACT_MASS>
282.198365449

> <PUBCHEM_MOLECULAR_FORMULA>
C20H26O

> <PUBCHEM_MOLECULAR_WEIGHT>
282.4

> <PUBCHEM_SMILES>
CC(C)(C)C1=CC(=CC(=C1O)C(C)(C)C)C2=CC=CC=C2

> <PUBCHEM_CONNECTIVITY_SMILES>
CC(C)(C)C1=CC(=CC(=C1O)C(C)(C)C)C2=CC=CC=C2

> <PUBCHEM_CACTVS_TPSA>
20.2

> <PUBCHEM_MONOISOTOPIC_WEIGHT>
282.198365449

> <PUBCHEM_TOTAL_CHARGE>
0

> <PUBCHEM_HEAVY_ATOM_COUNT>
21

> <PUBCHEM_ATOM_DEF_STEREO_COUNT>
0

> <PUBCHEM_ATOM_UDEF_STEREO_COUNT>
0

> <PUBCHEM_BOND_DEF_STEREO_COUNT>
0

> <PUBCHEM_BOND_UDEF_STEREO_COUNT>
0

> <PUBCHEM_ISOTOPIC_ATOM_COUNT>
0

> <PUBCHEM_COMPONENT_COUNT>
1

> <PUBCHEM_CACTVS_TAUTO_COUNT>
-1

> <PUBCHEM_COORDINATE_TYPE>
1
5
255

> <PUBCHEM_BONDANNOTATIONS>
16  17  8
16  18  8
17  19  8
18  20  8
19  21  8
20  21  8
4  6  8
4  7  8
5  6  8
5  8  8
7  15  8
8  15  8

$$$$
