176451
  -OEChem-08032615152D

 61 61  0     0  0  0  0  0  0999 V2000
   10.6603   -2.0600    0.0000 O   0  0  0  0  0  0  0  0  0  0  0  0
   12.3923   -0.0600    0.0000 O   0  0  0  0  0  0  0  0  0  0  0  0
   13.2583    2.4400    0.0000 O   0  0  0  0  0  0  0  0  0  0  0  0
   14.9904    4.4400    0.0000 O   0  0  0  0  0  0  0  0  0  0  0  0
    6.3301   -3.5600    0.0000 C   0  0  0  0  0  0  0  0  0  0  0  0
    5.4641   -3.0600    0.0000 C   0  0  0  0  0  0  0  0  0  0  0  0
    7.1962   -3.0600    0.0000 C   0  0  0  0  0  0  0  0  0  0  0  0
    4.5981   -3.5600    0.0000 C   0  0  0  0  0  0  0  0  0  0  0  0
    8.0622   -3.5600    0.0000 C   0  0  0  0  0  0  0  0  0  0  0  0
    3.7321   -3.0600    0.0000 C   0  0  0  0  0  0  0  0  0  0  0  0
    8.9282   -3.0600    0.0000 C   0  0  0  0  0  0  0  0  0  0  0  0
    2.8660   -3.5600    0.0000 C   0  0  0  0  0  0  0  0  0  0  0  0
    9.7942   -3.5600    0.0000 C   0  0  0  0  0  0  0  0  0  0  0  0
   10.6603   -3.0600    0.0000 C   0  0  0  0  0  0  0  0  0  0  0  0
    2.0000   -3.0600    0.0000 C   0  0  0  0  0  0  0  0  0  0  0  0
    9.7942   -4.5600    0.0000 C   0  0  0  0  0  0  0  0  0  0  0  0
   11.5263   -3.5600    0.0000 C   0  0  0  0  0  0  0  0  0  0  0  0
   10.6603   -5.0600    0.0000 C   0  0  0  0  0  0  0  0  0  0  0  0
   11.5263   -4.5600    0.0000 C   0  0  0  0  0  0  0  0  0  0  0  0
   11.5263   -1.5600    0.0000 C   0  0  0  0  0  0  0  0  0  0  0  0
   11.5263   -0.5600    0.0000 C   0  0  0  0  0  0  0  0  0  0  0  0
   12.3923    0.9400    0.0000 C   0  0  0  0  0  0  0  0  0  0  0  0
   13.2583    1.4400    0.0000 C   0  0  0  0  0  0  0  0  0  0  0  0
   14.1244    2.9400    0.0000 C   0  0  0  0  0  0  0  0  0  0  0  0
   14.1244    3.9400    0.0000 C   0  0  0  0  0  0  0  0  0  0  0  0
    5.9316   -4.0350    0.0000 H   0  0  0  0  0  0  0  0  0  0  0  0
    6.7287   -4.0350    0.0000 H   0  0  0  0  0  0  0  0  0  0  0  0
    5.8626   -2.5851    0.0000 H   0  0  0  0  0  0  0  0  0  0  0  0
    5.0656   -2.5851    0.0000 H   0  0  0  0  0  0  0  0  0  0  0  0
    7.5947   -2.5851    0.0000 H   0  0  0  0  0  0  0  0  0  0  0  0
    6.7976   -2.5851    0.0000 H   0  0  0  0  0  0  0  0  0  0  0  0
    4.1996   -4.0350    0.0000 H   0  0  0  0  0  0  0  0  0  0  0  0
    4.9966   -4.0350    0.0000 H   0  0  0  0  0  0  0  0  0  0  0  0
    7.6637   -4.0350    0.0000 H   0  0  0  0  0  0  0  0  0  0  0  0
    8.4607   -4.0350    0.0000 H   0  0  0  0  0  0  0  0  0  0  0  0
    4.1306   -2.5851    0.0000 H   0  0  0  0  0  0  0  0  0  0  0  0
    3.3335   -2.5851    0.0000 H   0  0  0  0  0  0  0  0  0  0  0  0
    9.3267   -2.5851    0.0000 H   0  0  0  0  0  0  0  0  0  0  0  0
    8.5297   -2.5851    0.0000 H   0  0  0  0  0  0  0  0  0  0  0  0
    2.4675   -4.0350    0.0000 H   0  0  0  0  0  0  0  0  0  0  0  0
    3.2646   -4.0350    0.0000 H   0  0  0  0  0  0  0  0  0  0  0  0
    2.3100   -2.5231    0.0000 H   0  0  0  0  0  0  0  0  0  0  0  0
    1.4631   -2.7500    0.0000 H   0  0  0  0  0  0  0  0  0  0  0  0
    1.6900   -3.5969    0.0000 H   0  0  0  0  0  0  0  0  0  0  0  0
    9.2573   -4.8700    0.0000 H   0  0  0  0  0  0  0  0  0  0  0  0
   12.0632   -3.2500    0.0000 H   0  0  0  0  0  0  0  0  0  0  0  0
   10.6603   -5.6800    0.0000 H   0  0  0  0  0  0  0  0  0  0  0  0
   12.0632   -4.8700    0.0000 H   0  0  0  0  0  0  0  0  0  0  0  0
   11.7383   -2.1426    0.0000 H   0  0  0  0  0  0  0  0  0  0  0  0
   12.1369   -1.4523    0.0000 H   0  0  0  0  0  0  0  0  0  0  0  0
   11.3142    0.0226    0.0000 H   0  0  0  0  0  0  0  0  0  0  0  0
   10.9157   -0.6677    0.0000 H   0  0  0  0  0  0  0  0  0  0  0  0
   12.1803    1.5226    0.0000 H   0  0  0  0  0  0  0  0  0  0  0  0
   11.7817    0.8323    0.0000 H   0  0  0  0  0  0  0  0  0  0  0  0
   13.4704    0.8574    0.0000 H   0  0  0  0  0  0  0  0  0  0  0  0
   13.8689    1.5477    0.0000 H   0  0  0  0  0  0  0  0  0  0  0  0
   14.3364    2.3574    0.0000 H   0  0  0  0  0  0  0  0  0  0  0  0
   14.7349    3.0477    0.0000 H   0  0  0  0  0  0  0  0  0  0  0  0
   13.9123    4.5226    0.0000 H   0  0  0  0  0  0  0  0  0  0  0  0
   13.5138    3.8323    0.0000 H   0  0  0  0  0  0  0  0  0  0  0  0
   14.9904    5.0600    0.0000 H   0  0  0  0  0  0  0  0  0  0  0  0
  1 14  1  0  0  0  0
  1 20  1  0  0  0  0
  2 21  1  0  0  0  0
  2 22  1  0  0  0  0
  3 23  1  0  0  0  0
  3 24  1  0  0  0  0
  4 25  1  0  0  0  0
  4 61  1  0  0  0  0
  5  6  1  0  0  0  0
  5  7  1  0  0  0  0
  5 26  1  0  0  0  0
  5 27  1  0  0  0  0
  6  8  1  0  0  0  0
  6 28  1  0  0  0  0
  6 29  1  0  0  0  0
  7  9  1  0  0  0  0
  7 30  1  0  0  0  0
  7 31  1  0  0  0  0
  8 10  1  0  0  0  0
  8 32  1  0  0  0  0
  8 33  1  0  0  0  0
  9 11  1  0  0  0  0
  9 34  1  0  0  0  0
  9 35  1  0  0  0  0
 10 12  1  0  0  0  0
 10 36  1  0  0  0  0
 10 37  1  0  0  0  0
 11 13  1  0  0  0  0
 11 38  1  0  0  0  0
 11 39  1  0  0  0  0
 12 15  1  0  0  0  0
 12 40  1  0  0  0  0
 12 41  1  0  0  0  0
 13 14  1  0  0  0  0
 13 16  2  0  0  0  0
 14 17  2  0  0  0  0
 15 42  1  0  0  0  0
 15 43  1  0  0  0  0
 15 44  1  0  0  0  0
 16 18  1  0  0  0  0
 16 45  1  0  0  0  0
 17 19  1  0  0  0  0
 17 46  1  0  0  0  0
 18 19  2  0  0  0  0
 18 47  1  0  0  0  0
 19 48  1  0  0  0  0
 20 21  1  0  0  0  0
 20 49  1  0  0  0  0
 20 50  1  0  0  0  0
 21 51  1  0  0  0  0
 21 52  1  0  0  0  0
 22 23  1  0  0  0  0
 22 53  1  0  0  0  0
 22 54  1  0  0  0  0
 23 55  1  0  0  0  0
 23 56  1  0  0  0  0
 24 25  1  0  0  0  0
 24 57  1  0  0  0  0
 24 58  1  0  0  0  0
 25 59  1  0  0  0  0
 25 60  1  0  0  0  0
M  END
> <PUBCHEM_COMPOUND_CID>
176451

> <PUBCHEM_COMPOUND_CANONICALIZED>
1

> <PUBCHEM_CACTVS_COMPLEXITY>
273

> <PUBCHEM_CACTVS_HBOND_ACCEPTOR>
4

> <PUBCHEM_CACTVS_HBOND_DONOR>
1

> <PUBCHEM_CACTVS_ROTATABLE_BOND>
17

> <PUBCHEM_CACTVS_SUBSKEYS>
AAADcfB4OAAAAAAAAAAAAAAAAAAAAAAAAAAwAAAAAAAAAAABAAAAGgAACAAADASgmAIyBoAABgCAAiBCAAACCAAgIAAIiAAGCIgNNiKEMRqCOCCkwBELqAeAwOAOAAAAAAAIAAAAAAAAABAAAAAAAAAAAA==

> <PUBCHEM_IUPAC_OPENEYE_NAME>
2-[2-[2-(2-nonylphenoxy)ethoxy]ethoxy]ethanol

> <PUBCHEM_IUPAC_CAS_NAME>
2-[2-[2-(2-nonylphenoxy)ethoxy]ethoxy]ethanol

> <PUBCHEM_IUPAC_NAME_MARKUP>
2-[2-[2-(2-nonylphenoxy)ethoxy]ethoxy]ethanol

> <PUBCHEM_IUPAC_NAME>
2-[2-[2-(2-nonylphenoxy)ethoxy]ethoxy]ethanol

> <PUBCHEM_IUPAC_SYSTEMATIC_NAME>
2-[2-[2-(2-nonylphenoxy)ethoxy]ethoxy]ethanol

> <PUBCHEM_IUPAC_TRADITIONAL_NAME>
2-[2-[2-(2-nonylphenoxy)ethoxy]ethoxy]ethanol

> <PUBCHEM_IUPAC_INCHI>
InChI=1S/C21H36O4/c1-2-3-4-5-6-7-8-11-20-12-9-10-13-21(20)25-19-18-24-17-16-23-15-14-22/h9-10,12-13,22H,2-8,11,14-19H2,1H3

> <PUBCHEM_IUPAC_INCHIKEY>
GDSSTYXBZTUGSJ-UHFFFAOYSA-N

> <PUBCHEM_XLOGP3_AA>
5.5

> <PUBCHEM_EXACT_MASS>
352.26135963

> <PUBCHEM_MOLECULAR_FORMULA>
C21H36O4

> <PUBCHEM_MOLECULAR_WEIGHT>
352.5

> <PUBCHEM_SMILES>
CCCCCCCCCC1=CC=CC=C1OCCOCCOCCO

> <PUBCHEM_CONNECTIVITY_SMILES>
CCCCCCCCCC1=CC=CC=C1OCCOCCOCCO

> <PUBCHEM_CACTVS_TPSA>
47.9

> <PUBCHEM_MONOISOTOPIC_WEIGHT>
352.26135963

> <PUBCHEM_TOTAL_CHARGE>
0

> <PUBCHEM_HEAVY_ATOM_COUNT>
25

> <PUBCHEM_ATOM_DEF_STEREO_COUNT>
0

> <PUBCHEM_ATOM_UDEF_STEREO_COUNT>
0

> <PUBCHEM_BOND_DEF_STEREO_COUNT>
0

> <PUBCHEM_BOND_UDEF_STEREO_COUNT>
0

> <PUBCHEM_ISOTOPIC_ATOM_COUNT>
0

> <PUBCHEM_COMPONENT_COUNT>
1

> <PUBCHEM_CACTVS_TAUTO_COUNT>
-1

> <PUBCHEM_COORDINATE_TYPE>
1
5
255

> <PUBCHEM_BONDANNOTATIONS>
13  14  8
13  16  8
14  17  8
16  18  8
17  19  8
18  19  8

$$$$
