177102
  -OEChem-05122608522D

 31 32  0     1  0  0  0  0  0999 V2000
    2.9511    1.3184    0.0000 C   0  0  0  0  0  0  0  0  0  0  0  0
    3.7601    0.7306    0.0000 C   0  0  3  0  0  0  0  0  0  0  0  0
    3.2601    2.2694    0.0000 C   0  0  0  0  0  0  0  0  0  0  0  0
    4.5691    1.3184    0.0000 C   0  0  0  0  0  0  0  0  0  0  0  0
    4.2601    2.2694    0.0000 C   0  0  0  0  0  0  0  0  0  0  0  0
    2.0000    1.6274    0.0000 C   0  0  0  0  0  0  0  0  0  0  0  0
    2.3633    0.5093    0.0000 C   0  0  0  0  0  0  0  0  0  0  0  0
    3.7601   -0.2694    0.0000 C   0  0  0  0  0  0  0  0  0  0  0  0
    2.8941   -0.7694    0.0000 C   0  0  0  0  0  0  0  0  0  0  0  0
    4.6261   -0.7694    0.0000 C   0  0  0  0  0  0  0  0  0  0  0  0
    2.8941   -1.7694    0.0000 C   0  0  0  0  0  0  0  0  0  0  0  0
    4.6261   -1.7694    0.0000 C   0  0  0  0  0  0  0  0  0  0  0  0
    3.7601   -2.2694    0.0000 C   0  0  0  0  0  0  0  0  0  0  0  0
    4.3125    0.4491    0.0000 H   0  0  0  0  0  0  0  0  0  0  0  0
    3.3249    2.8860    0.0000 H   0  0  0  0  0  0  0  0  0  0  0  0
    2.6536    2.3983    0.0000 H   0  0  0  0  0  0  0  0  0  0  0  0
    4.8791    0.7814    0.0000 H   0  0  0  0  0  0  0  0  0  0  0  0
    5.1355    1.5705    0.0000 H   0  0  0  0  0  0  0  0  0  0  0  0
    4.8665    2.3983    0.0000 H   0  0  0  0  0  0  0  0  0  0  0  0
    4.1953    2.8860    0.0000 H   0  0  0  0  0  0  0  0  0  0  0  0
    2.1916    2.2170    0.0000 H   0  0  0  0  0  0  0  0  0  0  0  0
    1.4103    1.8190    0.0000 H   0  0  0  0  0  0  0  0  0  0  0  0
    1.8084    1.0377    0.0000 H   0  0  0  0  0  0  0  0  0  0  0  0
    1.8617    0.8738    0.0000 H   0  0  0  0  0  0  0  0  0  0  0  0
    1.9988    0.0078    0.0000 H   0  0  0  0  0  0  0  0  0  0  0  0
    2.8649    0.1449    0.0000 H   0  0  0  0  0  0  0  0  0  0  0  0
    2.3571   -0.4594    0.0000 H   0  0  0  0  0  0  0  0  0  0  0  0
    5.1630   -0.4594    0.0000 H   0  0  0  0  0  0  0  0  0  0  0  0
    2.3571   -2.0794    0.0000 H   0  0  0  0  0  0  0  0  0  0  0  0
    5.1630   -2.0794    0.0000 H   0  0  0  0  0  0  0  0  0  0  0  0
    3.7601   -2.8894    0.0000 H   0  0  0  0  0  0  0  0  0  0  0  0
  1  2  1  0  0  0  0
  1  3  1  0  0  0  0
  1  6  1  0  0  0  0
  1  7  1  0  0  0  0
  2  4  1  0  0  0  0
  2  8  1  0  0  0  0
  2 14  1  0  0  0  0
  3  5  1  0  0  0  0
  3 15  1  0  0  0  0
  3 16  1  0  0  0  0
  4  5  1  0  0  0  0
  4 17  1  0  0  0  0
  4 18  1  0  0  0  0
  5 19  1  0  0  0  0
  5 20  1  0  0  0  0
  6 21  1  0  0  0  0
  6 22  1  0  0  0  0
  6 23  1  0  0  0  0
  7 24  1  0  0  0  0
  7 25  1  0  0  0  0
  7 26  1  0  0  0  0
  8  9  2  0  0  0  0
  8 10  1  0  0  0  0
  9 11  1  0  0  0  0
  9 27  1  0  0  0  0
 10 12  2  0  0  0  0
 10 28  1  0  0  0  0
 11 13  2  0  0  0  0
 11 29  1  0  0  0  0
 12 13  1  0  0  0  0
 12 30  1  0  0  0  0
 13 31  1  0  0  0  0
M  END
> <PUBCHEM_COMPOUND_CID>
177102

> <PUBCHEM_COMPOUND_CANONICALIZED>
1

> <PUBCHEM_CACTVS_COMPLEXITY>
163

> <PUBCHEM_CACTVS_HBOND_ACCEPTOR>
0

> <PUBCHEM_CACTVS_HBOND_DONOR>
0

> <PUBCHEM_CACTVS_ROTATABLE_BOND>
1

> <PUBCHEM_CACTVS_SUBSKEYS>
AAADceBwAAAAAAAAAAAAAAAAAAAAAYAAAAAwAAAAAAAAAAABAAAAGAAAAAAADwCAGAAyAIAAAACAAiBCAAACAAAgAAAIiAAAAIgIICKAERCAIAAggAAIiAcAgMAPgAAAAAAAAAAAAAAAAAAAAAAACAAAAA==

> <PUBCHEM_IUPAC_OPENEYE_NAME>
(2,2-dimethylcyclopentyl)benzene

> <PUBCHEM_IUPAC_CAS_NAME>
(2,2-dimethylcyclopentyl)benzene

> <PUBCHEM_IUPAC_NAME_MARKUP>
(2,2-dimethylcyclopentyl)benzene

> <PUBCHEM_IUPAC_NAME>
(2,2-dimethylcyclopentyl)benzene

> <PUBCHEM_IUPAC_SYSTEMATIC_NAME>
(2,2-dimethylcyclopentyl)benzene

> <PUBCHEM_IUPAC_TRADITIONAL_NAME>
(2,2-dimethylcyclopentyl)benzene

> <PUBCHEM_IUPAC_INCHI>
InChI=1S/C13H18/c1-13(2)10-6-9-12(13)11-7-4-3-5-8-11/h3-5,7-8,12H,6,9-10H2,1-2H3

> <PUBCHEM_IUPAC_INCHIKEY>
ULFKDLLDIXVBFH-UHFFFAOYSA-N

> <PUBCHEM_XLOGP3_AA>
4.6

> <PUBCHEM_EXACT_MASS>
174.140850574

> <PUBCHEM_MOLECULAR_FORMULA>
C13H18

> <PUBCHEM_MOLECULAR_WEIGHT>
174.28

> <PUBCHEM_SMILES>
CC1(CCCC1C2=CC=CC=C2)C

> <PUBCHEM_CONNECTIVITY_SMILES>
CC1(CCCC1C2=CC=CC=C2)C

> <PUBCHEM_CACTVS_TPSA>
0

> <PUBCHEM_MONOISOTOPIC_WEIGHT>
174.140850574

> <PUBCHEM_TOTAL_CHARGE>
0

> <PUBCHEM_HEAVY_ATOM_COUNT>
13

> <PUBCHEM_ATOM_DEF_STEREO_COUNT>
0

> <PUBCHEM_ATOM_UDEF_STEREO_COUNT>
1

> <PUBCHEM_BOND_DEF_STEREO_COUNT>
0

> <PUBCHEM_BOND_UDEF_STEREO_COUNT>
0

> <PUBCHEM_ISOTOPIC_ATOM_COUNT>
0

> <PUBCHEM_COMPONENT_COUNT>
1

> <PUBCHEM_CACTVS_TAUTO_COUNT>
-1

> <PUBCHEM_COORDINATE_TYPE>
1
5
255

> <PUBCHEM_BONDANNOTATIONS>
10  12  8
11  13  8
12  13  8
2  8  3
8  10  8
8  9  8
9  11  8

$$$$
