177222
  -OEChem-08032615272D

 27 29  0     0  0  0  0  0  0999 V2000
    5.5047    1.6355    0.0000 S   0  0  0  0  0  0  0  0  0  0  0  0
    6.0047    0.0967    0.0000 C   0  0  0  0  0  0  0  0  0  0  0  0
    5.0047    0.0967    0.0000 C   0  0  0  0  0  0  0  0  0  0  0  0
    4.6957    1.0477    0.0000 C   0  0  0  0  0  0  0  0  0  0  0  0
    6.3137    1.0477    0.0000 C   0  0  0  0  0  0  0  0  0  0  0  0
    6.6897   -0.6881    0.0000 C   0  0  0  0  0  0  0  0  0  0  0  0
    4.3197   -0.6881    0.0000 C   0  0  0  0  0  0  0  0  0  0  0  0
    3.6803    1.2800    0.0000 C   0  0  0  0  0  0  0  0  0  0  0  0
    2.9773    0.5113    0.0000 C   0  0  0  0  0  0  0  0  0  0  0  0
    7.3291    1.2800    0.0000 C   0  0  0  0  0  0  0  0  0  0  0  0
    7.7102   -0.4794    0.0000 C   0  0  0  0  0  0  0  0  0  0  0  0
    3.2992   -0.4794    0.0000 C   0  0  0  0  0  0  0  0  0  0  0  0
    6.3697   -1.6355    0.0000 C   0  0  0  0  0  0  0  0  0  0  0  0
    8.0321    0.5113    0.0000 C   0  0  0  0  0  0  0  0  0  0  0  0
    2.0000    0.7230    0.0000 C   0  0  0  0  0  0  0  0  0  0  0  0
    4.5181   -1.2755    0.0000 H   0  0  0  0  0  0  0  0  0  0  0  0
    3.4955    1.8718    0.0000 H   0  0  0  0  0  0  0  0  0  0  0  0
    7.5139    1.8718    0.0000 H   0  0  0  0  0  0  0  0  0  0  0  0
    8.1233   -0.9417    0.0000 H   0  0  0  0  0  0  0  0  0  0  0  0
    2.8861   -0.9417    0.0000 H   0  0  0  0  0  0  0  0  0  0  0  0
    5.7823   -1.4371    0.0000 H   0  0  0  0  0  0  0  0  0  0  0  0
    6.1713   -2.2229    0.0000 H   0  0  0  0  0  0  0  0  0  0  0  0
    6.9571   -1.8339    0.0000 H   0  0  0  0  0  0  0  0  0  0  0  0
    8.6380    0.6425    0.0000 H   0  0  0  0  0  0  0  0  0  0  0  0
    2.1312    1.3289    0.0000 H   0  0  0  0  0  0  0  0  0  0  0  0
    1.3941    0.8542    0.0000 H   0  0  0  0  0  0  0  0  0  0  0  0
    1.8688    0.1170    0.0000 H   0  0  0  0  0  0  0  0  0  0  0  0
  1  4  1  0  0  0  0
  1  5  1  0  0  0  0
  2  3  1  0  0  0  0
  2  5  1  0  0  0  0
  2  6  2  0  0  0  0
  3  4  2  0  0  0  0
  3  7  1  0  0  0  0
  4  8  1  0  0  0  0
  5 10  2  0  0  0  0
  6 11  1  0  0  0  0
  6 13  1  0  0  0  0
  7 12  2  0  0  0  0
  7 16  1  0  0  0  0
  8  9  2  0  0  0  0
  8 17  1  0  0  0  0
  9 12  1  0  0  0  0
  9 15  1  0  0  0  0
 10 14  1  0  0  0  0
 10 18  1  0  0  0  0
 11 14  2  0  0  0  0
 11 19  1  0  0  0  0
 12 20  1  0  0  0  0
 13 21  1  0  0  0  0
 13 22  1  0  0  0  0
 13 23  1  0  0  0  0
 14 24  1  0  0  0  0
 15 25  1  0  0  0  0
 15 26  1  0  0  0  0
 15 27  1  0  0  0  0
M  END
> <PUBCHEM_COMPOUND_CID>
177222

> <PUBCHEM_COMPOUND_CANONICALIZED>
1

> <PUBCHEM_CACTVS_COMPLEXITY>
237

> <PUBCHEM_CACTVS_HBOND_ACCEPTOR>
1

> <PUBCHEM_CACTVS_HBOND_DONOR>
0

> <PUBCHEM_CACTVS_ROTATABLE_BOND>
0

> <PUBCHEM_CACTVS_SUBSKEYS>
AAADccBwAABAAAAAAAAAAAAAAAAAASAAAAAwYAAAAAAAAEgB/AAAGAQAAAAADACAWAAyAcAAAAiEAiBCAAADAIAgCBBIiBgAAIgIICKgERCAIAAggAAoiAcAgMAOwAAAgAAUAACAAAEAACgAAAAAAAAAAA==

> <PUBCHEM_IUPAC_OPENEYE_NAME>
1,7-dimethyldibenzothiophene

> <PUBCHEM_IUPAC_CAS_NAME>
1,7-dimethyldibenzothiophene

> <PUBCHEM_IUPAC_NAME_MARKUP>
1,7-dimethyldibenzothiophene

> <PUBCHEM_IUPAC_NAME>
1,7-dimethyldibenzothiophene

> <PUBCHEM_IUPAC_SYSTEMATIC_NAME>
1,7-dimethyldibenzothiophene

> <PUBCHEM_IUPAC_TRADITIONAL_NAME>
1,7-dimethyldibenzothiophene

> <PUBCHEM_IUPAC_INCHI>
InChI=1S/C14H12S/c1-9-6-7-11-13(8-9)15-12-5-3-4-10(2)14(11)12/h3-8H,1-2H3

> <PUBCHEM_IUPAC_INCHIKEY>
VFQYQNKOTDCRKH-UHFFFAOYSA-N

> <PUBCHEM_XLOGP3_AA>
5

> <PUBCHEM_EXACT_MASS>
212.06597156

> <PUBCHEM_MOLECULAR_FORMULA>
C14H12S

> <PUBCHEM_MOLECULAR_WEIGHT>
212.31

> <PUBCHEM_SMILES>
CC1=CC2=C(C=C1)C3=C(C=CC=C3S2)C

> <PUBCHEM_CONNECTIVITY_SMILES>
CC1=CC2=C(C=C1)C3=C(C=CC=C3S2)C

> <PUBCHEM_CACTVS_TPSA>
28.2

> <PUBCHEM_MONOISOTOPIC_WEIGHT>
212.06597156

> <PUBCHEM_TOTAL_CHARGE>
0

> <PUBCHEM_HEAVY_ATOM_COUNT>
15

> <PUBCHEM_ATOM_DEF_STEREO_COUNT>
0

> <PUBCHEM_ATOM_UDEF_STEREO_COUNT>
0

> <PUBCHEM_BOND_DEF_STEREO_COUNT>
0

> <PUBCHEM_BOND_UDEF_STEREO_COUNT>
0

> <PUBCHEM_ISOTOPIC_ATOM_COUNT>
0

> <PUBCHEM_COMPONENT_COUNT>
1

> <PUBCHEM_CACTVS_TAUTO_COUNT>
-1

> <PUBCHEM_COORDINATE_TYPE>
1
5
255

> <PUBCHEM_BONDANNOTATIONS>
1  4  8
1  5  8
10  14  8
11  14  8
2  3  8
2  5  8
2  6  8
3  4  8
3  7  8
4  8  8
5  10  8
6  11  8
7  12  8
8  9  8
9  12  8

$$$$
