177842986
  -OEChem-05122608462D

 95 99  0     0  0  0  0  0  0999 V2000
   42.3116  -16.0973    0.0000 O   0  0  0  0  0  0  0  0  0  0  0  0
   33.3526  -21.7630    0.0000 O   0  0  0  0  0  0  0  0  0  0  0  0
   47.7813   -7.0173    0.0000 O   0  0  0  0  0  0  0  0  0  0  0  0
   10.1247  -16.7968    0.0000 O   0  0  0  0  0  0  0  0  0  0  0  0
   42.3116   16.0973    0.0000 O   0  0  0  0  0  0  0  0  0  0  0  0
    4.2657   -7.9630    0.0000 O   0  0  0  0  0  0  0  0  0  0  0  0
   33.3526   21.7630    0.0000 O   0  0  0  0  0  0  0  0  0  0  0  0
    4.2657    7.9630    0.0000 O   0  0  0  0  0  0  0  0  0  0  0  0
   10.1247   16.7968    0.0000 O   0  0  0  0  0  0  0  0  0  0  0  0
   30.0809  -23.6427    0.0000 O   0  0  0  0  0  0  0  0  0  0  0  0
   49.5895   -3.7054    0.0000 O   0  0  0  0  0  0  0  0  0  0  0  0
   12.3418  -19.8501    0.0000 O   0  0  0  0  0  0  0  0  0  0  0  0
   45.4123   13.9471    0.0000 O   0  0  0  0  0  0  0  0  0  0  0  0
    2.3153   -4.7329    0.0000 O   0  0  0  0  0  0  0  0  0  0  0  0
   30.0809   23.6427    0.0000 O   0  0  0  0  0  0  0  0  0  0  0  0
    2.3153    4.7329    0.0000 O   0  0  0  0  0  0  0  0  0  0  0  0
   12.3418   19.8501    0.0000 O   0  0  0  0  0  0  0  0  0  0  0  0
   39.6310  -18.4427    0.0000 C   0  0  0  0  0  0  0  0  0  0  0  0
   44.5982  -13.3663    0.0000 C   0  0  0  0  0  0  0  0  0  0  0  0
   36.6207  -20.3465    0.0000 C   0  0  0  0  0  0  0  0  0  0  0  0
   46.4361  -10.3153    0.0000 C   0  0  0  0  0  0  0  0  0  0  0  0
   26.3608  -23.0110    0.0000 C   0  0  0  0  0  0  0  0  0  0  0  0
   48.8771   -0.0000    0.0000 C   0  0  0  0  0  0  0  0  0  0  0  0
   15.9949  -20.7947    0.0000 C   0  0  0  0  0  0  0  0  0  0  0  0
   46.4361   10.3153    0.0000 C   0  0  0  0  0  0  0  0  0  0  0  0
    2.8660   -1.0000    0.0000 C   0  0  0  0  0  0  0  0  0  0  0  0
   26.3608   23.0110    0.0000 C   0  0  0  0  0  0  0  0  0  0  0  0
    2.8660    1.0000    0.0000 C   0  0  0  0  0  0  0  0  0  0  0  0
   15.9949   20.7947    0.0000 C   0  0  0  0  0  0  0  0  0  0  0  0
   22.9320  -22.1517    0.0000 C   0  0  0  0  0  0  0  0  0  0  0  0
   47.9436    3.4093    0.0000 C   0  0  0  0  0  0  0  0  0  0  0  0
   22.8045  -22.8126    0.0000 C   0  0  0  0  0  0  0  0  0  0  0  0
   48.6015    3.5512    0.0000 C   0  0  0  0  0  0  0  0  0  0  0  0
   19.4753  -21.4127    0.0000 C   0  0  0  0  0  0  0  0  0  0  0  0
   47.1296    6.8492    0.0000 C   0  0  0  0  0  0  0  0  0  0  0  0
   19.3214  -22.0679    0.0000 C   0  0  0  0  0  0  0  0  0  0  0  0
   47.7813    7.0173    0.0000 C   0  0  0  0  0  0  0  0  0  0  0  0
    7.7216  -14.1678    0.0000 C   0  0  0  0  0  0  0  0  0  0  0  0
   39.6310   18.4427    0.0000 C   0  0  0  0  0  0  0  0  0  0  0  0
    5.7529  -11.1995    0.0000 C   0  0  0  0  0  0  0  0  0  0  0  0
   36.6207   20.3465    0.0000 C   0  0  0  0  0  0  0  0  0  0  0  0
   29.9051  -22.6583    0.0000 C   0  0  0  0  0  0  0  0  0  0  0  0
   48.6015   -3.5512    0.0000 C   0  0  0  0  0  0  0  0  0  0  0  0
    2.0000   -0.5000    0.0000 C   0  0  0  0  0  0  0  0  0  0  0  0
   22.9320   22.1517    0.0000 C   0  0  0  0  0  0  0  0  0  0  0  0
    3.7321   -0.5000    0.0000 C   0  0  0  0  0  0  0  0  0  0  0  0
   22.8045   22.8126    0.0000 C   0  0  0  0  0  0  0  0  0  0  0  0
    2.0000    0.5000    0.0000 C   0  0  0  0  0  0  0  0  0  0  0  0
   19.4753   21.4127    0.0000 C   0  0  0  0  0  0  0  0  0  0  0  0
    3.7321    0.5000    0.0000 C   0  0  0  0  0  0  0  0  0  0  0  0
   19.3214   22.0679    0.0000 C   0  0  0  0  0  0  0  0  0  0  0  0
    5.7529   11.1995    0.0000 C   0  0  0  0  0  0  0  0  0  0  0  0
    7.7216   14.1678    0.0000 C   0  0  0  0  0  0  0  0  0  0  0  0
   12.9047  -19.0236    0.0000 C   0  0  0  0  0  0  0  0  0  0  0  0
   44.5982   13.3663    0.0000 C   0  0  0  0  0  0  0  0  0  0  0  0
    3.2957   -4.5358    0.0000 C   0  0  0  0  0  0  0  0  0  0  0  0
   29.9051   22.6583    0.0000 C   0  0  0  0  0  0  0  0  0  0  0  0
    3.2957    4.5358    0.0000 C   0  0  0  0  0  0  0  0  0  0  0  0
   12.9047   19.0236    0.0000 C   0  0  0  0  0  0  0  0  0  0  0  0
   39.6879  -19.0601    0.0000 H   0  0  0  0  0  0  0  0  0  0  0  0
   39.2601  -17.9459    0.0000 H   0  0  0  0  0  0  0  0  0  0  0  0
   44.8407  -13.9370    0.0000 H   0  0  0  0  0  0  0  0  0  0  0  0
   44.0935  -13.0063    0.0000 H   0  0  0  0  0  0  0  0  0  0  0  0
   36.5816  -20.9652    0.0000 H   0  0  0  0  0  0  0  0  0  0  0  0
   36.3308  -19.7984    0.0000 H   0  0  0  0  0  0  0  0  0  0  0  0
   46.7637  -10.8417    0.0000 H   0  0  0  0  0  0  0  0  0  0  0  0
   45.8819  -10.0374    0.0000 H   0  0  0  0  0  0  0  0  0  0  0  0
   23.0722  -21.5478    0.0000 H   0  0  0  0  0  0  0  0  0  0  0  0
   47.3428    3.2561    0.0000 H   0  0  0  0  0  0  0  0  0  0  0  0
   22.7222  -23.4271    0.0000 H   0  0  0  0  0  0  0  0  0  0  0  0
   49.2141    3.6468    0.0000 H   0  0  0  0  0  0  0  0  0  0  0  0
   19.5943  -20.8042    0.0000 H   0  0  0  0  0  0  0  0  0  0  0  0
   46.5238    6.7170    0.0000 H   0  0  0  0  0  0  0  0  0  0  0  0
   19.1453  -22.6624    0.0000 H   0  0  0  0  0  0  0  0  0  0  0  0
   48.3718    7.2063    0.0000 H   0  0  0  0  0  0  0  0  0  0  0  0
    7.1056  -14.2381    0.0000 H   0  0  0  0  0  0  0  0  0  0  0  0
    8.2102  -13.7862    0.0000 H   0  0  0  0  0  0  0  0  0  0  0  0
   40.2068   18.6727    0.0000 H   0  0  0  0  0  0  0  0  0  0  0  0
   39.2601   17.9459    0.0000 H   0  0  0  0  0  0  0  0  0  0  0  0
    5.1334  -11.1740    0.0000 H   0  0  0  0  0  0  0  0  0  0  0  0
    6.2945  -10.8978    0.0000 H   0  0  0  0  0  0  0  0  0  0  0  0
   37.1540   20.6625    0.0000 H   0  0  0  0  0  0  0  0  0  0  0  0
   36.3308   19.7984    0.0000 H   0  0  0  0  0  0  0  0  0  0  0  0
    1.4631   -0.8100    0.0000 H   0  0  0  0  0  0  0  0  0  0  0  0
   23.0722   21.5478    0.0000 H   0  0  0  0  0  0  0  0  0  0  0  0
    4.2690   -0.8100    0.0000 H   0  0  0  0  0  0  0  0  0  0  0  0
   22.7222   23.4271    0.0000 H   0  0  0  0  0  0  0  0  0  0  0  0
    1.4631    0.8100    0.0000 H   0  0  0  0  0  0  0  0  0  0  0  0
   19.5943   20.8042    0.0000 H   0  0  0  0  0  0  0  0  0  0  0  0
    4.2690    0.8100    0.0000 H   0  0  0  0  0  0  0  0  0  0  0  0
   19.1453   22.6624    0.0000 H   0  0  0  0  0  0  0  0  0  0  0  0
    5.4485   11.7397    0.0000 H   0  0  0  0  0  0  0  0  0  0  0  0
    6.2945   10.8978    0.0000 H   0  0  0  0  0  0  0  0  0  0  0  0
    7.5042   14.7484    0.0000 H   0  0  0  0  0  0  0  0  0  0  0  0
    8.2102   13.7862    0.0000 H   0  0  0  0  0  0  0  0  0  0  0  0
  1 18  1  0  0  0  0
  1 19  1  0  0  0  0
  2 20  1  0  0  0  0
  2 42  1  0  0  0  0
  3 21  1  0  0  0  0
  3 43  1  0  0  0  0
  4 38  1  0  0  0  0
  4 54  1  0  0  0  0
  5 39  1  0  0  0  0
  5 55  1  0  0  0  0
  6 40  1  0  0  0  0
  6 56  1  0  0  0  0
  7 41  1  0  0  0  0
  7 57  1  0  0  0  0
  8 52  1  0  0  0  0
  8 58  1  0  0  0  0
  9 53  1  0  0  0  0
  9 59  1  0  0  0  0
 10 42  2  0  0  0  0
 11 43  2  0  0  0  0
 12 54  2  0  0  0  0
 13 55  2  0  0  0  0
 14 56  2  0  0  0  0
 15 57  2  0  0  0  0
 16 58  2  0  0  0  0
 17 59  2  0  0  0  0
 18 20  1  0  0  0  0
 18 60  1  0  0  0  0
 18 61  1  0  0  0  0
 19 21  1  0  0  0  0
 19 62  1  0  0  0  0
 19 63  1  0  0  0  0
 20 64  1  0  0  0  0
 20 65  1  0  0  0  0
 21 66  1  0  0  0  0
 21 67  1  0  0  0  0
 22 30  2  0  0  0  0
 22 32  1  0  0  0  0
 22 42  1  0  0  0  0
 23 31  2  0  0  0  0
 23 33  1  0  0  0  0
 23 43  1  0  0  0  0
 24 34  2  0  0  0  0
 24 36  1  0  0  0  0
 24 54  1  0  0  0  0
 25 35  2  0  0  0  0
 25 37  1  0  0  0  0
 25 55  1  0  0  0  0
 26 44  2  0  0  0  0
 26 46  1  0  0  0  0
 26 56  1  0  0  0  0
 27 45  2  0  0  0  0
 27 47  1  0  0  0  0
 27 57  1  0  0  0  0
 28 48  2  0  0  0  0
 28 50  1  0  0  0  0
 28 58  1  0  0  0  0
 29 49  2  0  0  0  0
 29 51  1  0  0  0  0
 29 59  1  0  0  0  0
 30 34  1  0  0  0  0
 30 68  1  0  0  0  0
 31 35  1  0  0  0  0
 31 69  1  0  0  0  0
 32 36  2  0  0  0  0
 32 70  1  0  0  0  0
 33 37  2  0  0  0  0
 33 71  1  0  0  0  0
 34 72  1  0  0  0  0
 35 73  1  0  0  0  0
 36 74  1  0  0  0  0
 37 75  1  0  0  0  0
 38 40  1  0  0  0  0
 38 76  1  0  0  0  0
 38 77  1  0  0  0  0
 39 41  1  0  0  0  0
 39 78  1  0  0  0  0
 39 79  1  0  0  0  0
 40 80  1  0  0  0  0
 40 81  1  0  0  0  0
 41 82  1  0  0  0  0
 41 83  1  0  0  0  0
 44 48  1  0  0  0  0
 44 84  1  0  0  0  0
 45 49  1  0  0  0  0
 45 85  1  0  0  0  0
 46 50  2  0  0  0  0
 46 86  1  0  0  0  0
 47 51  2  0  0  0  0
 47 87  1  0  0  0  0
 48 88  1  0  0  0  0
 49 89  1  0  0  0  0
 50 90  1  0  0  0  0
 51 91  1  0  0  0  0
 52 53  1  0  0  0  0
 52 92  1  0  0  0  0
 52 93  1  0  0  0  0
 53 94  1  0  0  0  0
 53 95  1  0  0  0  0
M  END
> <PUBCHEM_COMPOUND_CID>
177842986

> <PUBCHEM_COMPOUND_CANONICALIZED>
1

> <PUBCHEM_CACTVS_COMPLEXITY>
1320

> <PUBCHEM_CACTVS_HBOND_ACCEPTOR>
17

> <PUBCHEM_CACTVS_HBOND_DONOR>
0

> <PUBCHEM_CACTVS_ROTATABLE_BOND>
0

> <PUBCHEM_CACTVS_SUBSKEYS>
AAADcfB8PgAAAAAAAAAAAAAAAAAAAAAAAAAwYMGAAAAAAAABVAAAGgAAAAAADACgmAIwCIAABACIAiDSCAACAAAkAAAIiAEACMgJJjKANRiCMQAkwAEKqYeIyDCOQAAAAAAAAACAAAAAAAAAAAAAAAAAAA==

> <PUBCHEM_IUPAC_OPENEYE_NAME>
3,6,13,16,23,26,33,36,39-nonaoxapentacyclo[39.2.2.28,11.218,21.228,31]henpentaconta-1(44),8,10,18,20,28(47),29,31(46),41(45),42,48,50-dodecaene-2,7,12,17,22,27,32,40-octone

> <PUBCHEM_IUPAC_CAS_NAME>
3,6,13,16,23,26,33,36,39-nonaoxapentacyclo[39.2.2.28,11.218,21.228,31]henpentaconta-1(44),8,10,18,20,28(47),29,31(46),41(45),42,48,50-dodecaene-2,7,12,17,22,27,32,40-octone

> <PUBCHEM_IUPAC_NAME_MARKUP>
3,6,13,16,23,26,33,36,39-nonaoxapentacyclo[39.2.2.2<SUP>8,11</SUP>.2<SUP>18,21</SUP>.2<SUP>28,31</SUP>]henpentaconta-1(44),8,10,18,20,28(47),29,31(46),41(45),42,48,50-dodecaene-2,7,12,17,22,27,32,40-octone

> <PUBCHEM_IUPAC_NAME>
3,6,13,16,23,26,33,36,39-nonaoxapentacyclo[39.2.2.28,11.218,21.228,31]henpentaconta-1(44),8,10,18,20,28(47),29,31(46),41(45),42,48,50-dodecaene-2,7,12,17,22,27,32,40-octone

> <PUBCHEM_IUPAC_SYSTEMATIC_NAME>
3,6,13,16,23,26,33,36,39-nonaoxapentacyclo[39.2.2.28,11.218,21.228,31]henpentaconta-1(44),8,10,18,20,28(47),29,31(46),41(45),42,48,50-dodecaene-2,7,12,17,22,27,32,40-octone

> <PUBCHEM_IUPAC_TRADITIONAL_NAME>
3,6,13,16,23,26,33,36,39-nonaoxapentacyclo[39.2.2.28,11.218,21.228,31]henpentaconta-1(44),8,10,18,20,28(47),29,31(46),41(45),42,48,50-dodecaene-2,7,12,17,22,27,32,40-tetraquinone

> <PUBCHEM_IUPAC_INCHI>
InChI=1S/C42H36O17/c43-35-27-1-5-29(6-2-27)37(45)54-21-23-56-39(47)31-9-13-33(14-10-31)41(49)58-25-26-59-42(50)34-15-11-32(12-16-34)40(48)57-24-22-55-38(46)30-7-3-28(4-8-30)36(44)53-20-18-51-17-19-52-35/h1-16H,17-26H2

> <PUBCHEM_IUPAC_INCHIKEY>
YTFCHCMAYXEXLE-UHFFFAOYSA-N

> <PUBCHEM_XLOGP3_AA>
5.5

> <PUBCHEM_EXACT_MASS>
812.19524968

> <PUBCHEM_MOLECULAR_FORMULA>
C42H36O17

> <PUBCHEM_MOLECULAR_WEIGHT>
812.7

> <PUBCHEM_SMILES>
C1COC(=O)C2=CC=C(C=C2)C(=O)OCCOC(=O)C3=CC=C(C=C3)C(=O)OCCOC(=O)C4=CC=C(C=C4)C(=O)OCCOC(=O)C5=CC=C(C=C5)C(=O)OCCO1

> <PUBCHEM_CONNECTIVITY_SMILES>
C1COC(=O)C2=CC=C(C=C2)C(=O)OCCOC(=O)C3=CC=C(C=C3)C(=O)OCCOC(=O)C4=CC=C(C=C4)C(=O)OCCOC(=O)C5=CC=C(C=C5)C(=O)OCCO1

> <PUBCHEM_CACTVS_TPSA>
220

> <PUBCHEM_MONOISOTOPIC_WEIGHT>
812.19524968

> <PUBCHEM_TOTAL_CHARGE>
0

> <PUBCHEM_HEAVY_ATOM_COUNT>
59

> <PUBCHEM_ATOM_DEF_STEREO_COUNT>
0

> <PUBCHEM_ATOM_UDEF_STEREO_COUNT>
0

> <PUBCHEM_BOND_DEF_STEREO_COUNT>
0

> <PUBCHEM_BOND_UDEF_STEREO_COUNT>
0

> <PUBCHEM_ISOTOPIC_ATOM_COUNT>
0

> <PUBCHEM_COMPONENT_COUNT>
1

> <PUBCHEM_CACTVS_TAUTO_COUNT>
-1

> <PUBCHEM_COORDINATE_TYPE>
1
5
255

> <PUBCHEM_BONDANNOTATIONS>
22  30  8
22  32  8
23  31  8
23  33  8
24  34  8
24  36  8
25  35  8
25  37  8
26  44  8
26  46  8
27  45  8
27  47  8
28  48  8
28  50  8
29  49  8
29  51  8
30  34  8
31  35  8
32  36  8
33  37  8
44  48  8
45  49  8
46  50  8
47  51  8

$$$$
