177843060
  -OEChem-05122609522D

 45 45  0     1  0  0  0  0  0999 V2000
    3.9727    1.8356    0.0000 O   0  0  0  0  0  0  0  0  0  0  0  0
    6.7998    1.8356    0.0000 O   0  0  0  0  0  0  0  0  0  0  0  0
    3.0991   -0.8531    0.0000 O   0  0  0  0  0  0  0  0  0  0  0  0
    7.6734   -0.8531    0.0000 O   0  0  0  0  0  0  0  0  0  0  0  0
    5.3862   -2.5149    0.0000 O   0  0  0  0  0  0  0  0  0  0  0  0
    2.4375    1.5925    0.0000 O   0  0  0  0  0  0  0  0  0  0  0  0
    6.0941    3.2205    0.0000 O   0  0  0  0  0  0  0  0  0  0  0  0
    2.8559   -2.3883    0.0000 O   0  0  0  0  0  0  0  0  0  0  0  0
    8.7724    0.2459    0.0000 O   0  0  0  0  0  0  0  0  0  0  0  0
    6.7711   -3.2205    0.0000 O   0  0  0  0  0  0  0  0  0  0  0  0
    4.8862    2.2423    0.0000 C   0  0  3  0  0  0  0  0  0  0  0  0
    7.4689    1.0925    0.0000 C   0  0  3  0  0  0  0  0  0  0  0  0
    2.9945    0.1414    0.0000 C   0  0  3  0  0  0  0  0  0  0  0  0
    7.1734   -1.7192    0.0000 C   0  0  3  0  0  0  0  0  0  0  0  0
    4.4081   -2.3069    0.0000 C   0  0  3  0  0  0  0  0  0  0  0  0
    7.7779    0.1414    0.0000 C   0  0  0  0  0  0  0  0  0  0  0  0
    3.3035    1.0925    0.0000 C   0  0  0  0  0  0  0  0  0  0  0  0
    6.3644   -2.3069    0.0000 C   0  0  0  0  0  0  0  0  0  0  0  0
    5.8862    2.2423    0.0000 C   0  0  0  0  0  0  0  0  0  0  0  0
    3.5991   -1.7192    0.0000 C   0  0  0  0  0  0  0  0  0  0  0  0
    4.6783    3.2205    0.0000 C   0  0  0  0  0  0  0  0  0  0  0  0
    8.3349    1.5925    0.0000 C   0  0  0  0  0  0  0  0  0  0  0  0
    2.0000    0.2459    0.0000 C   0  0  0  0  0  0  0  0  0  0  0  0
    7.9165   -2.3883    0.0000 C   0  0  0  0  0  0  0  0  0  0  0  0
    4.0013   -3.2205    0.0000 C   0  0  0  0  0  0  0  0  0  0  0  0
    4.3338    2.5238    0.0000 H   0  0  0  0  0  0  0  0  0  0  0  0
    7.5659    1.7048    0.0000 H   0  0  0  0  0  0  0  0  0  0  0  0
    2.5561   -0.2970    0.0000 H   0  0  0  0  0  0  0  0  0  0  0  0
    7.7858   -1.6222    0.0000 H   0  0  0  0  0  0  0  0  0  0  0  0
    4.6895   -2.8594    0.0000 H   0  0  0  0  0  0  0  0  0  0  0  0
    5.2848    3.3494    0.0000 H   0  0  0  0  0  0  0  0  0  0  0  0
    4.5494    3.8269    0.0000 H   0  0  0  0  0  0  0  0  0  0  0  0
    4.0719    3.0916    0.0000 H   0  0  0  0  0  0  0  0  0  0  0  0
    8.6449    1.0555    0.0000 H   0  0  0  0  0  0  0  0  0  0  0  0
    8.8719    1.9025    0.0000 H   0  0  0  0  0  0  0  0  0  0  0  0
    8.0249    2.1294    0.0000 H   0  0  0  0  0  0  0  0  0  0  0  0
    1.9352   -0.3707    0.0000 H   0  0  0  0  0  0  0  0  0  0  0  0
    1.3834    0.3107    0.0000 H   0  0  0  0  0  0  0  0  0  0  0  0
    2.0648    0.8625    0.0000 H   0  0  0  0  0  0  0  0  0  0  0  0
    7.5017   -2.8490    0.0000 H   0  0  0  0  0  0  0  0  0  0  0  0
    8.3773   -2.8031    0.0000 H   0  0  0  0  0  0  0  0  0  0  0  0
    8.3314   -1.9275    0.0000 H   0  0  0  0  0  0  0  0  0  0  0  0
    4.5677   -3.4727    0.0000 H   0  0  0  0  0  0  0  0  0  0  0  0
    3.7492   -3.7869    0.0000 H   0  0  0  0  0  0  0  0  0  0  0  0
    3.4349   -2.9683    0.0000 H   0  0  0  0  0  0  0  0  0  0  0  0
  1 11  1  0  0  0  0
  1 17  1  0  0  0  0
  2 12  1  0  0  0  0
  2 19  1  0  0  0  0
  3 13  1  0  0  0  0
  3 20  1  0  0  0  0
  4 14  1  0  0  0  0
  4 16  1  0  0  0  0
  5 15  1  0  0  0  0
  5 18  1  0  0  0  0
  6 17  2  0  0  0  0
  7 19  2  0  0  0  0
  8 20  2  0  0  0  0
  9 16  2  0  0  0  0
 10 18  2  0  0  0  0
 11 19  1  0  0  0  0
 11 21  1  0  0  0  0
 11 26  1  0  0  0  0
 12 16  1  0  0  0  0
 12 22  1  0  0  0  0
 12 27  1  0  0  0  0
 13 17  1  0  0  0  0
 13 23  1  0  0  0  0
 13 28  1  0  0  0  0
 14 18  1  0  0  0  0
 14 24  1  0  0  0  0
 14 29  1  0  0  0  0
 15 20  1  0  0  0  0
 15 25  1  0  0  0  0
 15 30  1  0  0  0  0
 21 31  1  0  0  0  0
 21 32  1  0  0  0  0
 21 33  1  0  0  0  0
 22 34  1  0  0  0  0
 22 35  1  0  0  0  0
 22 36  1  0  0  0  0
 23 37  1  0  0  0  0
 23 38  1  0  0  0  0
 23 39  1  0  0  0  0
 24 40  1  0  0  0  0
 24 41  1  0  0  0  0
 24 42  1  0  0  0  0
 25 43  1  0  0  0  0
 25 44  1  0  0  0  0
 25 45  1  0  0  0  0
M  END
> <PUBCHEM_COMPOUND_CID>
177843060

> <PUBCHEM_COMPOUND_CANONICALIZED>
1

> <PUBCHEM_CACTVS_COMPLEXITY>
453

> <PUBCHEM_CACTVS_HBOND_ACCEPTOR>
10

> <PUBCHEM_CACTVS_HBOND_DONOR>
0

> <PUBCHEM_CACTVS_ROTATABLE_BOND>
0

> <PUBCHEM_CACTVS_SUBSKEYS>
AAADceBwPAAAAAAAAAAAAAAAAAAAAAAAAAAAAAAAAAAAAAAAAAAAGgAAAAAACBSggAICCAAABAAIAACQCAIAAAAAAAAAAAFAAAABAAAAAAQCAAAAAAACAAAAAAAAAAAAAAAAAAAAAAAAAAAAAAAAAAAAAA==

> <PUBCHEM_IUPAC_OPENEYE_NAME>
3,6,9,12,15-pentamethyl-1,4,7,10,13-pentaoxacyclopentadecane-2,5,8,11,14-pentone

> <PUBCHEM_IUPAC_CAS_NAME>
3,6,9,12,15-pentamethyl-1,4,7,10,13-pentaoxacyclopentadecane-2,5,8,11,14-pentone

> <PUBCHEM_IUPAC_NAME_MARKUP>
3,6,9,12,15-pentamethyl-1,4,7,10,13-pentaoxacyclopentadecane-2,5,8,11,14-pentone

> <PUBCHEM_IUPAC_NAME>
3,6,9,12,15-pentamethyl-1,4,7,10,13-pentaoxacyclopentadecane-2,5,8,11,14-pentone

> <PUBCHEM_IUPAC_SYSTEMATIC_NAME>
3,6,9,12,15-pentamethyl-1,4,7,10,13-pentaoxacyclopentadecane-2,5,8,11,14-pentone

> <PUBCHEM_IUPAC_TRADITIONAL_NAME>
3,6,9,12,15-pentamethyl-1,4,7,10,13-pentaoxacyclopentadecane-2,5,8,11,14-pentone

> <PUBCHEM_IUPAC_INCHI>
InChI=1S/C15H20O10/c1-6-11(16)22-8(3)13(18)24-10(5)15(20)25-9(4)14(19)23-7(2)12(17)21-6/h6-10H,1-5H3

> <PUBCHEM_IUPAC_INCHIKEY>
KPRXDILNGYQRLA-UHFFFAOYSA-N

> <PUBCHEM_XLOGP3_AA>
1.6

> <PUBCHEM_EXACT_MASS>
360.10564683

> <PUBCHEM_MOLECULAR_FORMULA>
C15H20O10

> <PUBCHEM_MOLECULAR_WEIGHT>
360.31

> <PUBCHEM_SMILES>
CC1C(=O)OC(C(=O)OC(C(=O)OC(C(=O)OC(C(=O)O1)C)C)C)C

> <PUBCHEM_CONNECTIVITY_SMILES>
CC1C(=O)OC(C(=O)OC(C(=O)OC(C(=O)OC(C(=O)O1)C)C)C)C

> <PUBCHEM_CACTVS_TPSA>
132

> <PUBCHEM_MONOISOTOPIC_WEIGHT>
360.10564683

> <PUBCHEM_TOTAL_CHARGE>
0

> <PUBCHEM_HEAVY_ATOM_COUNT>
25

> <PUBCHEM_ATOM_DEF_STEREO_COUNT>
0

> <PUBCHEM_ATOM_UDEF_STEREO_COUNT>
5

> <PUBCHEM_BOND_DEF_STEREO_COUNT>
0

> <PUBCHEM_BOND_UDEF_STEREO_COUNT>
0

> <PUBCHEM_ISOTOPIC_ATOM_COUNT>
0

> <PUBCHEM_COMPONENT_COUNT>
1

> <PUBCHEM_CACTVS_TAUTO_COUNT>
-1

> <PUBCHEM_COORDINATE_TYPE>
1
5
255

> <PUBCHEM_BONDANNOTATIONS>
11  21  3
12  22  3
13  23  3
14  24  3
15  25  3

$$$$
