177842950
  -OEChem-05122608462D

 72 78  0     0  0  0  0  0  0999 V2000
    6.4300    3.5170    0.0000 S   0  0  0  0  0  0  0  0  0  0  0  0
    2.9659   -2.4830    0.0000 S   0  0  0  0  0  0  0  0  0  0  0  0
    9.8941   -2.4830    0.0000 S   0  0  0  0  0  0  0  0  0  0  0  0
    2.9659    1.5170    0.0000 O   0  0  0  0  0  0  0  0  0  0  0  0
    9.8941    1.5170    0.0000 O   0  0  0  0  0  0  0  0  0  0  0  0
    6.4300   -4.4830    0.0000 O   0  0  0  0  0  0  0  0  0  0  0  0
    6.6888    4.4830    0.0000 O   0  0  0  0  0  0  0  0  0  0  0  0
    5.7229    4.2241    0.0000 O   0  0  0  0  0  0  0  0  0  0  0  0
    2.2588   -3.1901    0.0000 O   0  0  0  0  0  0  0  0  0  0  0  0
    2.0000   -2.2241    0.0000 O   0  0  0  0  0  0  0  0  0  0  0  0
   10.6012   -3.1901    0.0000 O   0  0  0  0  0  0  0  0  0  0  0  0
   10.8600   -2.2241    0.0000 O   0  0  0  0  0  0  0  0  0  0  0  0
    5.5640    3.0170    0.0000 C   0  0  0  0  0  0  0  0  0  0  0  0
    7.2960    3.0170    0.0000 C   0  0  0  0  0  0  0  0  0  0  0  0
    2.9659   -1.4830    0.0000 C   0  0  0  0  0  0  0  0  0  0  0  0
    3.8319   -2.9830    0.0000 C   0  0  0  0  0  0  0  0  0  0  0  0
    9.8941   -1.4830    0.0000 C   0  0  0  0  0  0  0  0  0  0  0  0
    9.0281   -2.9830    0.0000 C   0  0  0  0  0  0  0  0  0  0  0  0
    4.6980    3.5170    0.0000 C   0  0  0  0  0  0  0  0  0  0  0  0
    8.1621    3.5170    0.0000 C   0  0  0  0  0  0  0  0  0  0  0  0
    2.0999   -0.9830    0.0000 C   0  0  0  0  0  0  0  0  0  0  0  0
    3.8319   -3.9830    0.0000 C   0  0  0  0  0  0  0  0  0  0  0  0
   10.7601   -0.9830    0.0000 C   0  0  0  0  0  0  0  0  0  0  0  0
    9.0281   -3.9830    0.0000 C   0  0  0  0  0  0  0  0  0  0  0  0
    5.5640    2.0170    0.0000 C   0  0  0  0  0  0  0  0  0  0  0  0
    7.2960    2.0170    0.0000 C   0  0  0  0  0  0  0  0  0  0  0  0
    3.8319   -0.9830    0.0000 C   0  0  0  0  0  0  0  0  0  0  0  0
    4.6980   -2.4830    0.0000 C   0  0  0  0  0  0  0  0  0  0  0  0
    9.0281   -0.9830    0.0000 C   0  0  0  0  0  0  0  0  0  0  0  0
    8.1621   -2.4830    0.0000 C   0  0  0  0  0  0  0  0  0  0  0  0
    3.8319    2.0170    0.0000 C   0  0  0  0  0  0  0  0  0  0  0  0
    2.9659    0.5170    0.0000 C   0  0  0  0  0  0  0  0  0  0  0  0
    9.0281    2.0170    0.0000 C   0  0  0  0  0  0  0  0  0  0  0  0
    9.8941    0.5170    0.0000 C   0  0  0  0  0  0  0  0  0  0  0  0
    5.5640   -3.9830    0.0000 C   0  0  0  0  0  0  0  0  0  0  0  0
    7.2960   -3.9830    0.0000 C   0  0  0  0  0  0  0  0  0  0  0  0
    3.8319    3.0170    0.0000 C   0  0  0  0  0  0  0  0  0  0  0  0
    9.0281    3.0170    0.0000 C   0  0  0  0  0  0  0  0  0  0  0  0
    2.0999    0.0170    0.0000 C   0  0  0  0  0  0  0  0  0  0  0  0
   10.7601    0.0170    0.0000 C   0  0  0  0  0  0  0  0  0  0  0  0
    4.6980   -4.4830    0.0000 C   0  0  0  0  0  0  0  0  0  0  0  0
    8.1621   -4.4830    0.0000 C   0  0  0  0  0  0  0  0  0  0  0  0
    4.6980    1.5170    0.0000 C   0  0  0  0  0  0  0  0  0  0  0  0
    8.1621    1.5170    0.0000 C   0  0  0  0  0  0  0  0  0  0  0  0
    3.8319    0.0170    0.0000 C   0  0  0  0  0  0  0  0  0  0  0  0
    9.0281    0.0170    0.0000 C   0  0  0  0  0  0  0  0  0  0  0  0
    5.5640   -2.9830    0.0000 C   0  0  0  0  0  0  0  0  0  0  0  0
    7.2960   -2.9830    0.0000 C   0  0  0  0  0  0  0  0  0  0  0  0
    4.6980    4.1370    0.0000 H   0  0  0  0  0  0  0  0  0  0  0  0
    8.1621    4.1370    0.0000 H   0  0  0  0  0  0  0  0  0  0  0  0
    1.5630   -1.2930    0.0000 H   0  0  0  0  0  0  0  0  0  0  0  0
    3.2950   -4.2930    0.0000 H   0  0  0  0  0  0  0  0  0  0  0  0
   11.2971   -1.2930    0.0000 H   0  0  0  0  0  0  0  0  0  0  0  0
    9.5650   -4.2930    0.0000 H   0  0  0  0  0  0  0  0  0  0  0  0
    6.1009    1.7070    0.0000 H   0  0  0  0  0  0  0  0  0  0  0  0
    6.7591    1.7070    0.0000 H   0  0  0  0  0  0  0  0  0  0  0  0
    4.3689   -1.2930    0.0000 H   0  0  0  0  0  0  0  0  0  0  0  0
    4.6980   -1.8630    0.0000 H   0  0  0  0  0  0  0  0  0  0  0  0
    8.4912   -1.2930    0.0000 H   0  0  0  0  0  0  0  0  0  0  0  0
    8.1621   -1.8630    0.0000 H   0  0  0  0  0  0  0  0  0  0  0  0
    3.2950    3.3270    0.0000 H   0  0  0  0  0  0  0  0  0  0  0  0
    9.5650    3.3270    0.0000 H   0  0  0  0  0  0  0  0  0  0  0  0
    1.5630    0.3270    0.0000 H   0  0  0  0  0  0  0  0  0  0  0  0
   11.2971    0.3270    0.0000 H   0  0  0  0  0  0  0  0  0  0  0  0
    4.6980   -5.1030    0.0000 H   0  0  0  0  0  0  0  0  0  0  0  0
    8.1621   -5.1030    0.0000 H   0  0  0  0  0  0  0  0  0  0  0  0
    4.6980    0.8970    0.0000 H   0  0  0  0  0  0  0  0  0  0  0  0
    8.1621    0.8970    0.0000 H   0  0  0  0  0  0  0  0  0  0  0  0
    4.3689    0.3270    0.0000 H   0  0  0  0  0  0  0  0  0  0  0  0
    8.4912    0.3270    0.0000 H   0  0  0  0  0  0  0  0  0  0  0  0
    6.1009   -2.6730    0.0000 H   0  0  0  0  0  0  0  0  0  0  0  0
    6.7591   -2.6730    0.0000 H   0  0  0  0  0  0  0  0  0  0  0  0
  1  7  2  0  0  0  0
  1  8  2  0  0  0  0
  1 13  1  0  0  0  0
  1 14  1  0  0  0  0
  2  9  2  0  0  0  0
  2 10  2  0  0  0  0
  2 15  1  0  0  0  0
  2 16  1  0  0  0  0
  3 11  2  0  0  0  0
  3 12  2  0  0  0  0
  3 17  1  0  0  0  0
  3 18  1  0  0  0  0
  4 31  1  0  0  0  0
  4 32  1  0  0  0  0
  5 33  1  0  0  0  0
  5 34  1  0  0  0  0
  6 35  1  0  0  0  0
  6 36  1  0  0  0  0
 13 19  2  0  0  0  0
 13 25  1  0  0  0  0
 14 20  2  0  0  0  0
 14 26  1  0  0  0  0
 15 21  2  0  0  0  0
 15 27  1  0  0  0  0
 16 22  2  0  0  0  0
 16 28  1  0  0  0  0
 17 23  2  0  0  0  0
 17 29  1  0  0  0  0
 18 24  2  0  0  0  0
 18 30  1  0  0  0  0
 19 37  1  0  0  0  0
 19 49  1  0  0  0  0
 20 38  1  0  0  0  0
 20 50  1  0  0  0  0
 21 39  1  0  0  0  0
 21 51  1  0  0  0  0
 22 41  1  0  0  0  0
 22 52  1  0  0  0  0
 23 40  1  0  0  0  0
 23 53  1  0  0  0  0
 24 42  1  0  0  0  0
 24 54  1  0  0  0  0
 25 43  2  0  0  0  0
 25 55  1  0  0  0  0
 26 44  2  0  0  0  0
 26 56  1  0  0  0  0
 27 45  2  0  0  0  0
 27 57  1  0  0  0  0
 28 47  2  0  0  0  0
 28 58  1  0  0  0  0
 29 46  2  0  0  0  0
 29 59  1  0  0  0  0
 30 48  2  0  0  0  0
 30 60  1  0  0  0  0
 31 37  2  0  0  0  0
 31 43  1  0  0  0  0
 32 39  2  0  0  0  0
 32 45  1  0  0  0  0
 33 38  2  0  0  0  0
 33 44  1  0  0  0  0
 34 40  2  0  0  0  0
 34 46  1  0  0  0  0
 35 41  2  0  0  0  0
 35 47  1  0  0  0  0
 36 42  2  0  0  0  0
 36 48  1  0  0  0  0
 37 61  1  0  0  0  0
 38 62  1  0  0  0  0
 39 63  1  0  0  0  0
 40 64  1  0  0  0  0
 41 65  1  0  0  0  0
 42 66  1  0  0  0  0
 43 67  1  0  0  0  0
 44 68  1  0  0  0  0
 45 69  1  0  0  0  0
 46 70  1  0  0  0  0
 47 71  1  0  0  0  0
 48 72  1  0  0  0  0
M  END
> <PUBCHEM_COMPOUND_CID>
177842950

> <PUBCHEM_COMPOUND_CANONICALIZED>
1

> <PUBCHEM_CACTVS_COMPLEXITY>
1110

> <PUBCHEM_CACTVS_HBOND_ACCEPTOR>
9

> <PUBCHEM_CACTVS_HBOND_DONOR>
0

> <PUBCHEM_CACTVS_ROTATABLE_BOND>
0

> <PUBCHEM_CACTVS_SUBSKEYS>
AAADceB8PABgAAAAAAAAAAAAAAAAAAAAAAAwYMGDAAAAAAABVAAAGgQAAAAACASA0AAwB4AABAqAACBCAHBCCAAgKBAIiBgGCIgMJiKkMRqCOCCkwBEoqAeAQAAAAIAAAAAAAAABAAAAAAAAAAAAAAAAAA==

> <PUBCHEM_IUPAC_OPENEYE_NAME>
2,12,22-trioxa-7lambda6,17lambda6,27lambda6-trithiaheptacyclo[26.2.2.23,6.28,11.213,16.218,21.223,26]dotetraconta-1(30),3(42),4,6(41),8(40),9,11(39),13(38),14,16(37),18,20,23,25,28,31,33,35-octadecaene 7,7,17,17,27,27-hexaoxide

> <PUBCHEM_IUPAC_CAS_NAME>
2,12,22-trioxa-7lambda6,17lambda6,27lambda6-trithiaheptacyclo[26.2.2.23,6.28,11.213,16.218,21.223,26]dotetraconta-1(30),3(42),4,6(41),8(40),9,11(39),13(38),14,16(37),18,20,23,25,28,31,33,35-octadecaene 7,7,17,17,27,27-hexaoxide

> <PUBCHEM_IUPAC_NAME_MARKUP>
2,12,22-trioxa-7&lambda;<SUP>6</SUP>,17&lambda;<SUP>6</SUP>,27&lambda;<SUP>6</SUP>-trithiaheptacyclo[26.2.2.2<SUP>3,6</SUP>.2<SUP>8,11</SUP>.2<SUP>13,16</SUP>.2<SUP>18,21</SUP>.2<SUP>23,26</SUP>]dotetraconta-1(30),3(42),4,6(41),8(40),9,11(39),13(38),14,16(37),18,20,23,25,28,31,33,35-octadecaene 7,7,17,17,27,27-hexaoxide

> <PUBCHEM_IUPAC_NAME>
2,12,22-trioxa-7lambda6,17lambda6,27lambda6-trithiaheptacyclo[26.2.2.23,6.28,11.213,16.218,21.223,26]dotetraconta-1(30),3(42),4,6(41),8(40),9,11(39),13(38),14,16(37),18,20,23,25,28,31,33,35-octadecaene 7,7,17,17,27,27-hexaoxide

> <PUBCHEM_IUPAC_SYSTEMATIC_NAME>
2,12,22-trioxa-7lambda6,17lambda6,27lambda6-trithiaheptacyclo[26.2.2.23,6.28,11.213,16.218,21.223,26]dotetraconta-1(30),3(42),4,6(41),8(40),9,11(39),13(38),14,16(37),18,20,23,25,28,31,33,35-octadecaene 7,7,17,17,27,27-hexaoxide

> <PUBCHEM_IUPAC_TRADITIONAL_NAME>
2,12,22-trioxa-7lambda6,17lambda6,27lambda6-trithiaheptacyclo[26.2.2.23,6.28,11.213,16.218,21.223,26]dotetraconta-1(30),3(42),4,6(41),8(40),9,11(39),13(38),14,16(37),18,20,23,25,28,31,33,35-octadecaene 7,7,17,17,27,27-hexaoxide

> <PUBCHEM_IUPAC_INCHI>
InChI=1S/C36H24O9S3/c37-46(38)31-13-1-25(2-14-31)43-26-3-15-33(16-4-26)47(39,40)34-19-7-29(8-20-34)45-30-11-23-36(24-12-30)48(41,42)35-21-9-28(10-22-35)44-27-5-17-32(46)18-6-27/h1-24H

> <PUBCHEM_IUPAC_INCHIKEY>
LZTVYZRXKXHBFA-UHFFFAOYSA-N

> <PUBCHEM_XLOGP3_AA>
7

> <PUBCHEM_EXACT_MASS>
696.05824586

> <PUBCHEM_MOLECULAR_FORMULA>
C36H24O9S3

> <PUBCHEM_MOLECULAR_WEIGHT>
696.8

> <PUBCHEM_SMILES>
C1=CC2=CC=C1OC3=CC=C(C=C3)S(=O)(=O)C4=CC=C(C=C4)OC5=CC=C(C=C5)S(=O)(=O)C6=CC=C(C=C6)OC7=CC=C(S2(=O)=O)C=C7

> <PUBCHEM_CONNECTIVITY_SMILES>
C1=CC2=CC=C1OC3=CC=C(C=C3)S(=O)(=O)C4=CC=C(C=C4)OC5=CC=C(C=C5)S(=O)(=O)C6=CC=C(C=C6)OC7=CC=C(S2(=O)=O)C=C7

> <PUBCHEM_CACTVS_TPSA>
155

> <PUBCHEM_MONOISOTOPIC_WEIGHT>
696.05824586

> <PUBCHEM_TOTAL_CHARGE>
0

> <PUBCHEM_HEAVY_ATOM_COUNT>
48

> <PUBCHEM_ATOM_DEF_STEREO_COUNT>
0

> <PUBCHEM_ATOM_UDEF_STEREO_COUNT>
0

> <PUBCHEM_BOND_DEF_STEREO_COUNT>
0

> <PUBCHEM_BOND_UDEF_STEREO_COUNT>
0

> <PUBCHEM_ISOTOPIC_ATOM_COUNT>
0

> <PUBCHEM_COMPONENT_COUNT>
1

> <PUBCHEM_CACTVS_TAUTO_COUNT>
-1

> <PUBCHEM_COORDINATE_TYPE>
1
5
255

> <PUBCHEM_BONDANNOTATIONS>
13  19  8
13  25  8
14  20  8
14  26  8
15  21  8
15  27  8
16  22  8
16  28  8
17  23  8
17  29  8
18  24  8
18  30  8
19  37  8
20  38  8
21  39  8
22  41  8
23  40  8
24  42  8
25  43  8
26  44  8
27  45  8
28  47  8
29  46  8
30  48  8
31  37  8
31  43  8
32  39  8
32  45  8
33  38  8
33  44  8
34  40  8
34  46  8
35  41  8
35  47  8
36  42  8
36  48  8

$$$$
