177843006
  -OEChem-05122609552D

 38 39  0     1  0  0  0  0  0999 V2000
    2.0000   -1.2376    0.0000 O   0  0  0  0  0  0  0  0  0  0  0  0
    5.5000   -0.3716    0.0000 C   0  0  1  0  0  0  0  0  0  0  0  0
    6.0878   -1.1806    0.0000 C   0  0  2  0  0  0  0  0  0  0  0  0
    6.0878    0.4374    0.0000 C   0  0  2  0  0  0  0  0  0  0  0  0
    7.0388   -0.8716    0.0000 C   0  0  0  0  0  0  0  0  0  0  0  0
    7.0388    0.1284    0.0000 C   0  0  0  0  0  0  0  0  0  0  0  0
    5.0000   -1.2376    0.0000 C   0  0  0  0  0  0  0  0  0  0  0  0
    5.0000    0.4945    0.0000 C   0  0  0  0  0  0  0  0  0  0  0  0
    4.0000   -1.2376    0.0000 C   0  0  0  0  0  0  0  0  0  0  0  0
    5.7788   -2.1317    0.0000 C   0  0  0  0  0  0  0  0  0  0  0  0
    5.7788    1.3885    0.0000 C   0  0  0  0  0  0  0  0  0  0  0  0
    4.0000    0.4945    0.0000 C   0  0  0  0  0  0  0  0  0  0  0  0
    3.5000   -0.3716    0.0000 C   0  0  0  0  0  0  0  0  0  0  0  0
    6.4479    2.1317    0.0000 C   0  0  0  0  0  0  0  0  0  0  0  0
    4.8006    1.5964    0.0000 C   0  0  0  0  0  0  0  0  0  0  0  0
    2.5000   -0.3716    0.0000 C   0  0  0  0  0  0  0  0  0  0  0  0
    6.5262   -1.6190    0.0000 H   0  0  0  0  0  0  0  0  0  0  0  0
    6.5262    0.8759    0.0000 H   0  0  0  0  0  0  0  0  0  0  0  0
    7.1678   -1.4780    0.0000 H   0  0  0  0  0  0  0  0  0  0  0  0
    7.6555   -0.8068    0.0000 H   0  0  0  0  0  0  0  0  0  0  0  0
    7.6555    0.0636    0.0000 H   0  0  0  0  0  0  0  0  0  0  0  0
    7.1678    0.7349    0.0000 H   0  0  0  0  0  0  0  0  0  0  0  0
    4.8923   -1.8482    0.0000 H   0  0  0  0  0  0  0  0  0  0  0  0
    5.5826   -1.4497    0.0000 H   0  0  0  0  0  0  0  0  0  0  0  0
    5.5826    0.7065    0.0000 H   0  0  0  0  0  0  0  0  0  0  0  0
    4.8923    1.1050    0.0000 H   0  0  0  0  0  0  0  0  0  0  0  0
    3.4174   -1.4497    0.0000 H   0  0  0  0  0  0  0  0  0  0  0  0
    4.1077   -1.8482    0.0000 H   0  0  0  0  0  0  0  0  0  0  0  0
    5.1891   -1.9401    0.0000 H   0  0  0  0  0  0  0  0  0  0  0  0
    5.5872   -2.7213    0.0000 H   0  0  0  0  0  0  0  0  0  0  0  0
    6.3684   -2.3232    0.0000 H   0  0  0  0  0  0  0  0  0  0  0  0
    3.6900    1.0314    0.0000 H   0  0  0  0  0  0  0  0  0  0  0  0
    6.9087    1.7168    0.0000 H   0  0  0  0  0  0  0  0  0  0  0  0
    6.8628    2.5924    0.0000 H   0  0  0  0  0  0  0  0  0  0  0  0
    5.9872    2.5465    0.0000 H   0  0  0  0  0  0  0  0  0  0  0  0
    4.6090    2.1861    0.0000 H   0  0  0  0  0  0  0  0  0  0  0  0
    4.3858    1.1357    0.0000 H   0  0  0  0  0  0  0  0  0  0  0  0
    2.1900    0.1654    0.0000 H   0  0  0  0  0  0  0  0  0  0  0  0
  1 16  2  0  0  0  0
  2  3  1  0  0  0  0
  2  4  1  0  0  0  0
  2  7  1  6  0  0  0
  2  8  1  0  0  0  0
  3  5  1  0  0  0  0
  3 10  1  6  0  0  0
  3 17  1  0  0  0  0
  4  6  1  0  0  0  0
  4 11  1  1  0  0  0
  4 18  1  0  0  0  0
  5  6  1  0  0  0  0
  5 19  1  0  0  0  0
  5 20  1  0  0  0  0
  6 21  1  0  0  0  0
  6 22  1  0  0  0  0
  7  9  1  0  0  0  0
  7 23  1  0  0  0  0
  7 24  1  0  0  0  0
  8 12  1  0  0  0  0
  8 25  1  0  0  0  0
  8 26  1  0  0  0  0
  9 13  1  0  0  0  0
  9 27  1  0  0  0  0
  9 28  1  0  0  0  0
 10 29  1  0  0  0  0
 10 30  1  0  0  0  0
 10 31  1  0  0  0  0
 11 14  1  0  0  0  0
 11 15  2  0  0  0  0
 12 13  2  0  0  0  0
 12 32  1  0  0  0  0
 13 16  1  0  0  0  0
 14 33  1  0  0  0  0
 14 34  1  0  0  0  0
 14 35  1  0  0  0  0
 15 36  1  0  0  0  0
 15 37  1  0  0  0  0
 16 38  1  0  0  0  0
M  END
> <PUBCHEM_COMPOUND_CID>
177843006

> <PUBCHEM_COMPOUND_CANONICALIZED>
1

> <PUBCHEM_CACTVS_COMPLEXITY>
339

> <PUBCHEM_CACTVS_HBOND_ACCEPTOR>
1

> <PUBCHEM_CACTVS_HBOND_DONOR>
0

> <PUBCHEM_CACTVS_ROTATABLE_BOND>
2

> <PUBCHEM_CACTVS_SUBSKEYS>
AAADceBwIAAAAAAAAAAAAAAAAAAAAYAAAAAgAAAAAAAAAAAAAAAAGgAAAAAADwCggAICAAAAAACIAihSgAAAAAAgAAAACAEAAEgAABIAAQAAAAAAgAAIAYMIiMCPgAAAAAAAAAAAAAAAAAAAAQAACAAAAA==

> <PUBCHEM_IUPAC_OPENEYE_NAME>
(1S,4R,5R)-4-isopropenyl-1-methyl-spiro[4.5]dec-8-ene-8-carbaldehyde

> <PUBCHEM_IUPAC_CAS_NAME>
(1S,4R,5R)-1-methyl-4-(1-methylethenyl)-8-spiro[4.5]dec-8-enecarboxaldehyde

> <PUBCHEM_IUPAC_NAME_MARKUP>
(1<I>S</I>,4<I>R</I>,5<I>R</I>)-1-methyl-4-prop-1-en-2-ylspiro[4.5]dec-8-ene-8-carbaldehyde

> <PUBCHEM_IUPAC_NAME>
(1S,4R,5R)-1-methyl-4-prop-1-en-2-ylspiro[4.5]dec-8-ene-8-carbaldehyde

> <PUBCHEM_IUPAC_SYSTEMATIC_NAME>
(1S,4R,5R)-1-methyl-4-prop-1-en-2-yl-spiro[4.5]dec-8-ene-8-carbaldehyde

> <PUBCHEM_IUPAC_TRADITIONAL_NAME>
(1S,4R,5R)-4-isopropenyl-1-methyl-spiro[4.5]dec-8-ene-8-carbaldehyde

> <PUBCHEM_IUPAC_INCHI>
InChI=1S/C15H22O/c1-11(2)14-5-4-12(3)15(14)8-6-13(10-16)7-9-15/h6,10,12,14H,1,4-5,7-9H2,2-3H3/t12-,14+,15-/m0/s1

> <PUBCHEM_IUPAC_INCHIKEY>
SUKDSHSNIPECAU-CFVMTHIKSA-N

> <PUBCHEM_XLOGP3_AA>
4.4

> <PUBCHEM_EXACT_MASS>
218.167065321

> <PUBCHEM_MOLECULAR_FORMULA>
C15H22O

> <PUBCHEM_MOLECULAR_WEIGHT>
218.33

> <PUBCHEM_SMILES>
C[C@H]1CC[C@@H]([C@@]12CCC(=CC2)C=O)C(=C)C

> <PUBCHEM_CONNECTIVITY_SMILES>
CC1CCC(C12CCC(=CC2)C=O)C(=C)C

> <PUBCHEM_CACTVS_TPSA>
17.1

> <PUBCHEM_MONOISOTOPIC_WEIGHT>
218.167065321

> <PUBCHEM_TOTAL_CHARGE>
0

> <PUBCHEM_HEAVY_ATOM_COUNT>
16

> <PUBCHEM_ATOM_DEF_STEREO_COUNT>
3

> <PUBCHEM_ATOM_UDEF_STEREO_COUNT>
0

> <PUBCHEM_BOND_DEF_STEREO_COUNT>
0

> <PUBCHEM_BOND_UDEF_STEREO_COUNT>
0

> <PUBCHEM_ISOTOPIC_ATOM_COUNT>
0

> <PUBCHEM_COMPONENT_COUNT>
1

> <PUBCHEM_CACTVS_TAUTO_COUNT>
-1

> <PUBCHEM_COORDINATE_TYPE>
1
5
255

> <PUBCHEM_BONDANNOTATIONS>
2  7  6
3  10  6
4  11  5

$$$$
