177842907
  -OEChem-05122608462D

 72 74  0     0  0  0  0  0  0999 V2000
   10.2324    4.4164    0.0000 O   0  0  0  0  0  0  0  0  0  0  0  0
   12.4690    0.5427    0.0000 O   0  0  0  0  0  0  0  0  0  0  0  0
    2.0000    0.4392    0.0000 O   0  0  0  0  0  0  0  0  0  0  0  0
    4.9084   -4.5982    0.0000 O   0  0  0  0  0  0  0  0  0  0  0  0
    8.7832    4.0634    0.0000 N   0  0  0  0  0  0  0  0  0  0  0  0
   11.4386   -0.5359    0.0000 N   0  0  0  0  0  0  0  0  0  0  0  0
    3.1774    1.3551    0.0000 N   0  0  0  0  0  0  0  0  0  0  0  0
    6.2902   -4.0366    0.0000 N   0  0  0  0  0  0  0  0  0  0  0  0
    5.8510    4.1213    0.0000 C   0  0  0  0  0  0  0  0  0  0  0  0
   10.0227   -3.1042    0.0000 C   0  0  0  0  0  0  0  0  0  0  0  0
    4.9544    3.6881    0.0000 C   0  0  0  0  0  0  0  0  0  0  0  0
    9.1992   -3.6641    0.0000 C   0  0  0  0  0  0  0  0  0  0  0  0
    6.8239    4.3339    0.0000 C   0  0  0  0  0  0  0  0  0  0  0  0
   10.6932   -2.3680    0.0000 C   0  0  0  0  0  0  0  0  0  0  0  0
    4.1832    3.0582    0.0000 C   0  0  0  0  0  0  0  0  0  0  0  0
    8.2680   -4.0170    0.0000 C   0  0  0  0  0  0  0  0  0  0  0  0
    7.8195    4.3142    0.0000 C   0  0  0  0  0  0  0  0  0  0  0  0
   11.1740   -1.4959    0.0000 C   0  0  0  0  0  0  0  0  0  0  0  0
    3.5798    2.2660    0.0000 C   0  0  0  0  0  0  0  0  0  0  0  0
    7.2803   -4.1435    0.0000 C   0  0  0  0  0  0  0  0  0  0  0  0
    9.6620    3.5951    0.0000 C   0  0  0  0  0  0  0  0  0  0  0  0
   11.4724    0.4593    0.0000 C   0  0  0  0  0  0  0  0  0  0  0  0
    2.9980    0.3756    0.0000 C   0  0  0  0  0  0  0  0  0  0  0  0
    5.3523   -3.7022    0.0000 C   0  0  0  0  0  0  0  0  0  0  0  0
   10.4077    2.9351    0.0000 C   0  0  0  0  0  0  0  0  0  0  0  0
   11.2737    1.4351    0.0000 C   0  0  0  0  0  0  0  0  0  0  0  0
    3.0515   -0.6188    0.0000 C   0  0  0  0  0  0  0  0  0  0  0  0
    4.5179   -3.1586    0.0000 C   0  0  0  0  0  0  0  0  0  0  0  0
   10.4077    1.9351    0.0000 C   0  0  0  0  0  0  0  0  0  0  0  0
    3.3350   -1.5734    0.0000 C   0  0  0  0  0  0  0  0  0  0  0  0
    3.7531   -1.3301    0.0000 C   0  0  0  0  0  0  0  0  0  0  0  0
    3.8329   -2.4358    0.0000 C   0  0  0  0  0  0  0  0  0  0  0  0
    4.2526   -2.1954    0.0000 C   0  0  0  0  0  0  0  0  0  0  0  0
   11.2737    3.4351    0.0000 C   0  0  0  0  0  0  0  0  0  0  0  0
   12.1398    1.9351    0.0000 C   0  0  0  0  0  0  0  0  0  0  0  0
   12.1398    2.9351    0.0000 C   0  0  0  0  0  0  0  0  0  0  0  0
    5.9925    4.7250    0.0000 H   0  0  0  0  0  0  0  0  0  0  0  0
    6.0535    3.5353    0.0000 H   0  0  0  0  0  0  0  0  0  0  0  0
   10.1165   -3.7171    0.0000 H   0  0  0  0  0  0  0  0  0  0  0  0
    9.6164   -2.6359    0.0000 H   0  0  0  0  0  0  0  0  0  0  0  0
    4.9514    4.3081    0.0000 H   0  0  0  0  0  0  0  0  0  0  0  0
    5.2876    3.1653    0.0000 H   0  0  0  0  0  0  0  0  0  0  0  0
    9.1478   -4.2820    0.0000 H   0  0  0  0  0  0  0  0  0  0  0  0
    8.9131   -3.1141    0.0000 H   0  0  0  0  0  0  0  0  0  0  0  0
    7.1019    4.8881    0.0000 H   0  0  0  0  0  0  0  0  0  0  0  0
    6.8844    3.7169    0.0000 H   0  0  0  0  0  0  0  0  0  0  0  0
   10.9271   -2.9422    0.0000 H   0  0  0  0  0  0  0  0  0  0  0  0
   10.1891   -2.0071    0.0000 H   0  0  0  0  0  0  0  0  0  0  0  0
    4.0360    3.6604    0.0000 H   0  0  0  0  0  0  0  0  0  0  0  0
    4.6290    2.6273    0.0000 H   0  0  0  0  0  0  0  0  0  0  0  0
    8.0742   -4.6059    0.0000 H   0  0  0  0  0  0  0  0  0  0  0  0
    8.1178   -3.4155    0.0000 H   0  0  0  0  0  0  0  0  0  0  0  0
    8.2189    4.7885    0.0000 H   0  0  0  0  0  0  0  0  0  0  0  0
    7.7347    3.7001    0.0000 H   0  0  0  0  0  0  0  0  0  0  0  0
   11.5351   -1.9999    0.0000 H   0  0  0  0  0  0  0  0  0  0  0  0
   10.5997   -1.2623    0.0000 H   0  0  0  0  0  0  0  0  0  0  0  0
    3.2965    2.8175    0.0000 H   0  0  0  0  0  0  0  0  0  0  0  0
    4.1136    1.9507    0.0000 H   0  0  0  0  0  0  0  0  0  0  0  0
    6.9547   -4.6711    0.0000 H   0  0  0  0  0  0  0  0  0  0  0  0
    7.2742   -3.5235    0.0000 H   0  0  0  0  0  0  0  0  0  0  0  0
    9.0086    4.6409    0.0000 H   0  0  0  0  0  0  0  0  0  0  0  0
   12.0515   -0.6295    0.0000 H   0  0  0  0  0  0  0  0  0  0  0  0
    2.5848    1.5375    0.0000 H   0  0  0  0  0  0  0  0  0  0  0  0
    6.1519   -4.6409    0.0000 H   0  0  0  0  0  0  0  0  0  0  0  0
    9.8708    1.6251    0.0000 H   0  0  0  0  0  0  0  0  0  0  0  0
    2.7655   -1.8183    0.0000 H   0  0  0  0  0  0  0  0  0  0  0  0
    4.2463   -0.9544    0.0000 H   0  0  0  0  0  0  0  0  0  0  0  0
    3.3360   -2.8066    0.0000 H   0  0  0  0  0  0  0  0  0  0  0  0
    4.8246   -1.9561    0.0000 H   0  0  0  0  0  0  0  0  0  0  0  0
   11.2737    4.0551    0.0000 H   0  0  0  0  0  0  0  0  0  0  0  0
   12.6767    1.6251    0.0000 H   0  0  0  0  0  0  0  0  0  0  0  0
   12.6767    3.2451    0.0000 H   0  0  0  0  0  0  0  0  0  0  0  0
  1 21  2  0  0  0  0
  2 22  2  0  0  0  0
  3 23  2  0  0  0  0
  4 24  2  0  0  0  0
  5 17  1  0  0  0  0
  5 21  1  0  0  0  0
  5 61  1  0  0  0  0
  6 18  1  0  0  0  0
  6 22  1  0  0  0  0
  6 62  1  0  0  0  0
  7 19  1  0  0  0  0
  7 23  1  0  0  0  0
  7 63  1  0  0  0  0
  8 20  1  0  0  0  0
  8 24  1  0  0  0  0
  8 64  1  0  0  0  0
  9 11  1  0  0  0  0
  9 13  1  0  0  0  0
  9 37  1  0  0  0  0
  9 38  1  0  0  0  0
 10 12  1  0  0  0  0
 10 14  1  0  0  0  0
 10 39  1  0  0  0  0
 10 40  1  0  0  0  0
 11 15  1  0  0  0  0
 11 41  1  0  0  0  0
 11 42  1  0  0  0  0
 12 16  1  0  0  0  0
 12 43  1  0  0  0  0
 12 44  1  0  0  0  0
 13 17  1  0  0  0  0
 13 45  1  0  0  0  0
 13 46  1  0  0  0  0
 14 18  1  0  0  0  0
 14 47  1  0  0  0  0
 14 48  1  0  0  0  0
 15 19  1  0  0  0  0
 15 49  1  0  0  0  0
 15 50  1  0  0  0  0
 16 20  1  0  0  0  0
 16 51  1  0  0  0  0
 16 52  1  0  0  0  0
 17 53  1  0  0  0  0
 17 54  1  0  0  0  0
 18 55  1  0  0  0  0
 18 56  1  0  0  0  0
 19 57  1  0  0  0  0
 19 58  1  0  0  0  0
 20 59  1  0  0  0  0
 20 60  1  0  0  0  0
 21 25  1  0  0  0  0
 22 26  1  0  0  0  0
 23 27  1  0  0  0  0
 24 28  1  0  0  0  0
 25 29  2  0  0  0  0
 25 34  1  0  0  0  0
 26 29  1  0  0  0  0
 26 35  2  0  0  0  0
 27 30  2  0  0  0  0
 27 31  1  0  0  0  0
 28 32  2  0  0  0  0
 28 33  1  0  0  0  0
 29 65  1  0  0  0  0
 30 32  1  0  0  0  0
 30 66  1  0  0  0  0
 31 33  2  0  0  0  0
 31 67  1  0  0  0  0
 32 68  1  0  0  0  0
 33 69  1  0  0  0  0
 34 36  2  0  0  0  0
 34 70  1  0  0  0  0
 35 36  1  0  0  0  0
 35 71  1  0  0  0  0
 36 72  1  0  0  0  0
M  END
> <PUBCHEM_COMPOUND_CID>
177842907

> <PUBCHEM_COMPOUND_CANONICALIZED>
1

> <PUBCHEM_CACTVS_COMPLEXITY>
662

> <PUBCHEM_CACTVS_HBOND_ACCEPTOR>
4

> <PUBCHEM_CACTVS_HBOND_DONOR>
4

> <PUBCHEM_CACTVS_ROTATABLE_BOND>
0

> <PUBCHEM_CACTVS_SUBSKEYS>
AAADcfB7uAAAAAAAAAAAAAAAAAAAAAAAAAAwYAAAAAAAAAABQAAAHgAQAAAADADBmAQwAILAAACIAiFSEACCAAAkAAAIiIEIBMgIIDKAlRGEIQhglgCIiYcYi0COQAACAAAAAACAAAQAAAAAAAAAAAAAAA==

> <PUBCHEM_IUPAC_OPENEYE_NAME>
3,10,18,25-tetrazatricyclo[25.2.2.112,16]dotriaconta-1(30),12(32),13,15,27(31),28-hexaene-2,11,17,26-tetrone

> <PUBCHEM_IUPAC_CAS_NAME>
3,10,18,25-tetrazatricyclo[25.2.2.112,16]dotriaconta-1(30),12(32),13,15,27(31),28-hexaene-2,11,17,26-tetrone

> <PUBCHEM_IUPAC_NAME_MARKUP>
3,10,18,25-tetrazatricyclo[25.2.2.1<SUP>12,16</SUP>]dotriaconta-1(30),12(32),13,15,27(31),28-hexaene-2,11,17,26-tetrone

> <PUBCHEM_IUPAC_NAME>
3,10,18,25-tetrazatricyclo[25.2.2.112,16]dotriaconta-1(30),12(32),13,15,27(31),28-hexaene-2,11,17,26-tetrone

> <PUBCHEM_IUPAC_SYSTEMATIC_NAME>
3,10,18,25-tetrazatricyclo[25.2.2.112,16]dotriaconta-1(30),12(32),13,15,27(31),28-hexaene-2,11,17,26-tetrone

> <PUBCHEM_IUPAC_TRADITIONAL_NAME>
3,10,18,25-tetrazatricyclo[25.2.2.112,16]dotriaconta-1(30),12(32),13,15,27(31),28-hexaene-2,11,17,26-diquinone

> <PUBCHEM_IUPAC_INCHI>
InChI=1S/C28H36N4O4/c33-25-21-12-14-22(15-13-21)26(34)30-17-6-2-4-8-19-32-28(36)24-11-9-10-23(20-24)27(35)31-18-7-3-1-5-16-29-25/h9-15,20H,1-8,16-19H2,(H,29,33)(H,30,34)(H,31,35)(H,32,36)

> <PUBCHEM_IUPAC_INCHIKEY>
KBJVGVRPIPIOHZ-UHFFFAOYSA-N

> <PUBCHEM_XLOGP3_AA>
3.4

> <PUBCHEM_EXACT_MASS>
492.27365564

> <PUBCHEM_MOLECULAR_FORMULA>
C28H36N4O4

> <PUBCHEM_MOLECULAR_WEIGHT>
492.6

> <PUBCHEM_SMILES>
C1CCCNC(=O)C2=CC(=CC=C2)C(=O)NCCCCCCNC(=O)C3=CC=C(C=C3)C(=O)NCC1

> <PUBCHEM_CONNECTIVITY_SMILES>
C1CCCNC(=O)C2=CC(=CC=C2)C(=O)NCCCCCCNC(=O)C3=CC=C(C=C3)C(=O)NCC1

> <PUBCHEM_CACTVS_TPSA>
116

> <PUBCHEM_MONOISOTOPIC_WEIGHT>
492.27365564

> <PUBCHEM_TOTAL_CHARGE>
0

> <PUBCHEM_HEAVY_ATOM_COUNT>
36

> <PUBCHEM_ATOM_DEF_STEREO_COUNT>
0

> <PUBCHEM_ATOM_UDEF_STEREO_COUNT>
0

> <PUBCHEM_BOND_DEF_STEREO_COUNT>
0

> <PUBCHEM_BOND_UDEF_STEREO_COUNT>
0

> <PUBCHEM_ISOTOPIC_ATOM_COUNT>
0

> <PUBCHEM_COMPONENT_COUNT>
1

> <PUBCHEM_CACTVS_TAUTO_COUNT>
-1

> <PUBCHEM_COORDINATE_TYPE>
1
5
255

> <PUBCHEM_BONDANNOTATIONS>
25  29  8
25  34  8
26  29  8
26  35  8
27  30  8
27  31  8
28  32  8
28  33  8
30  32  8
31  33  8
34  36  8
35  36  8

$$$$
