177844030
  -OEChem-05122608322D

 91 94  0     0  0  0  0  0  0999 V2000
    7.7331   -0.1550    0.0000 O   0  0  0  0  0  0  0  0  0  0  0  0
    8.5991    2.3450    0.0000 O   0  0  0  0  0  0  0  0  0  0  0  0
    6.0010   -5.1550    0.0000 O   0  0  0  0  0  0  0  0  0  0  0  0
    5.1350   -7.6550    0.0000 O   0  0  0  0  0  0  0  0  0  0  0  0
   10.3312    7.3450    0.0000 O   0  0  0  0  0  0  0  0  0  0  0  0
   11.1972    9.8450    0.0000 O   0  0  0  0  0  0  0  0  0  0  0  0
    3.4030  -12.6550    0.0000 O   0  0  0  0  0  0  0  0  0  0  0  0
    6.0010   -0.1550    0.0000 O   0  0  0  0  0  0  0  0  0  0  0  0
   10.3312    2.3450    0.0000 O   0  0  0  0  0  0  0  0  0  0  0  0
    7.7331   -5.1550    0.0000 O   0  0  0  0  0  0  0  0  0  0  0  0
    8.5991    7.3450    0.0000 O   0  0  0  0  0  0  0  0  0  0  0  0
    3.4030   -7.6550    0.0000 O   0  0  0  0  0  0  0  0  0  0  0  0
    5.1350  -12.6550    0.0000 O   0  0  0  0  0  0  0  0  0  0  0  0
   12.9292    9.8450    0.0000 O   0  0  0  0  0  0  0  0  0  0  0  0
    2.5369  -15.1550    0.0000 O   0  0  0  0  0  0  0  0  0  0  0  0
   12.9292   14.8450    0.0000 O   0  0  0  0  0  0  0  0  0  0  0  0
   11.1972   14.8450    0.0000 O   0  0  0  0  0  0  0  0  0  0  0  0
    6.8671   -1.6550    0.0000 C   0  0  0  0  0  0  0  0  0  0  0  0
    6.8671   -3.6550    0.0000 C   0  0  0  0  0  0  0  0  0  0  0  0
    9.4651    3.8450    0.0000 C   0  0  0  0  0  0  0  0  0  0  0  0
    9.4651    5.8450    0.0000 C   0  0  0  0  0  0  0  0  0  0  0  0
    7.7331    0.8450    0.0000 C   0  0  0  0  0  0  0  0  0  0  0  0
    8.5991    1.3450    0.0000 C   0  0  0  0  0  0  0  0  0  0  0  0
    6.0010   -2.1550    0.0000 C   0  0  0  0  0  0  0  0  0  0  0  0
    7.7331   -2.1550    0.0000 C   0  0  0  0  0  0  0  0  0  0  0  0
    6.0010   -3.1550    0.0000 C   0  0  0  0  0  0  0  0  0  0  0  0
    7.7331   -3.1550    0.0000 C   0  0  0  0  0  0  0  0  0  0  0  0
    4.2690   -9.1550    0.0000 C   0  0  0  0  0  0  0  0  0  0  0  0
   10.3312    4.3450    0.0000 C   0  0  0  0  0  0  0  0  0  0  0  0
    8.5991    4.3450    0.0000 C   0  0  0  0  0  0  0  0  0  0  0  0
   10.3312    5.3450    0.0000 C   0  0  0  0  0  0  0  0  0  0  0  0
    8.5991    5.3450    0.0000 C   0  0  0  0  0  0  0  0  0  0  0  0
    6.0010   -6.1550    0.0000 C   0  0  0  0  0  0  0  0  0  0  0  0
    5.1350   -6.6550    0.0000 C   0  0  0  0  0  0  0  0  0  0  0  0
    4.2690  -11.1550    0.0000 C   0  0  0  0  0  0  0  0  0  0  0  0
   10.3312    8.3450    0.0000 C   0  0  0  0  0  0  0  0  0  0  0  0
    6.8671   -0.6550    0.0000 C   0  0  0  0  0  0  0  0  0  0  0  0
    9.4651    2.8450    0.0000 C   0  0  0  0  0  0  0  0  0  0  0  0
    6.8671   -4.6550    0.0000 C   0  0  0  0  0  0  0  0  0  0  0  0
    3.4030   -9.6550    0.0000 C   0  0  0  0  0  0  0  0  0  0  0  0
    5.1350   -9.6550    0.0000 C   0  0  0  0  0  0  0  0  0  0  0  0
   11.1972    8.8450    0.0000 C   0  0  0  0  0  0  0  0  0  0  0  0
    9.4651    6.8450    0.0000 C   0  0  0  0  0  0  0  0  0  0  0  0
    3.4030  -10.6550    0.0000 C   0  0  0  0  0  0  0  0  0  0  0  0
    5.1350  -10.6550    0.0000 C   0  0  0  0  0  0  0  0  0  0  0  0
    4.2690   -8.1550    0.0000 C   0  0  0  0  0  0  0  0  0  0  0  0
   12.0632   11.3450    0.0000 C   0  0  0  0  0  0  0  0  0  0  0  0
   12.9292   11.8450    0.0000 C   0  0  0  0  0  0  0  0  0  0  0  0
   11.1972   11.8450    0.0000 C   0  0  0  0  0  0  0  0  0  0  0  0
    4.2690  -12.1550    0.0000 C   0  0  0  0  0  0  0  0  0  0  0  0
   12.0632   10.3450    0.0000 C   0  0  0  0  0  0  0  0  0  0  0  0
   12.0632   13.3450    0.0000 C   0  0  0  0  0  0  0  0  0  0  0  0
   12.9292   12.8450    0.0000 C   0  0  0  0  0  0  0  0  0  0  0  0
   11.1972   12.8450    0.0000 C   0  0  0  0  0  0  0  0  0  0  0  0
    3.4030  -13.6550    0.0000 C   0  0  0  0  0  0  0  0  0  0  0  0
    2.5369  -14.1550    0.0000 C   0  0  0  0  0  0  0  0  0  0  0  0
   12.0632   14.3450    0.0000 C   0  0  0  0  0  0  0  0  0  0  0  0
    7.5210    1.4276    0.0000 H   0  0  0  0  0  0  0  0  0  0  0  0
    7.1225    0.7373    0.0000 H   0  0  0  0  0  0  0  0  0  0  0  0
    8.8112    0.7624    0.0000 H   0  0  0  0  0  0  0  0  0  0  0  0
    9.2097    1.4527    0.0000 H   0  0  0  0  0  0  0  0  0  0  0  0
    5.4641   -1.8450    0.0000 H   0  0  0  0  0  0  0  0  0  0  0  0
    8.2700   -1.8450    0.0000 H   0  0  0  0  0  0  0  0  0  0  0  0
    5.4641   -3.4650    0.0000 H   0  0  0  0  0  0  0  0  0  0  0  0
    8.2700   -3.4650    0.0000 H   0  0  0  0  0  0  0  0  0  0  0  0
   10.8681    4.0350    0.0000 H   0  0  0  0  0  0  0  0  0  0  0  0
    8.0622    4.0350    0.0000 H   0  0  0  0  0  0  0  0  0  0  0  0
   10.8681    5.6550    0.0000 H   0  0  0  0  0  0  0  0  0  0  0  0
    8.0622    5.6550    0.0000 H   0  0  0  0  0  0  0  0  0  0  0  0
    6.2131   -6.7376    0.0000 H   0  0  0  0  0  0  0  0  0  0  0  0
    6.6116   -6.0473    0.0000 H   0  0  0  0  0  0  0  0  0  0  0  0
    4.9230   -6.0724    0.0000 H   0  0  0  0  0  0  0  0  0  0  0  0
    4.5244   -6.7627    0.0000 H   0  0  0  0  0  0  0  0  0  0  0  0
   10.1191    8.9276    0.0000 H   0  0  0  0  0  0  0  0  0  0  0  0
    9.7206    8.2373    0.0000 H   0  0  0  0  0  0  0  0  0  0  0  0
    2.8660   -9.3450    0.0000 H   0  0  0  0  0  0  0  0  0  0  0  0
    5.6720   -9.3450    0.0000 H   0  0  0  0  0  0  0  0  0  0  0  0
   11.4092    8.2624    0.0000 H   0  0  0  0  0  0  0  0  0  0  0  0
   11.8078    8.9527    0.0000 H   0  0  0  0  0  0  0  0  0  0  0  0
    2.8660  -10.9650    0.0000 H   0  0  0  0  0  0  0  0  0  0  0  0
    5.6720  -10.9650    0.0000 H   0  0  0  0  0  0  0  0  0  0  0  0
   13.4662   11.5350    0.0000 H   0  0  0  0  0  0  0  0  0  0  0  0
   10.6603   11.5350    0.0000 H   0  0  0  0  0  0  0  0  0  0  0  0
   13.4662   13.1550    0.0000 H   0  0  0  0  0  0  0  0  0  0  0  0
   10.6603   13.1550    0.0000 H   0  0  0  0  0  0  0  0  0  0  0  0
    3.6150  -14.2376    0.0000 H   0  0  0  0  0  0  0  0  0  0  0  0
    4.0135  -13.5473    0.0000 H   0  0  0  0  0  0  0  0  0  0  0  0
    2.3249  -13.5724    0.0000 H   0  0  0  0  0  0  0  0  0  0  0  0
    1.9264  -14.2627    0.0000 H   0  0  0  0  0  0  0  0  0  0  0  0
    2.0000  -15.4650    0.0000 H   0  0  0  0  0  0  0  0  0  0  0  0
   12.9292   15.4650    0.0000 H   0  0  0  0  0  0  0  0  0  0  0  0
  1 22  1  0  0  0  0
  1 37  1  0  0  0  0
  2 23  1  0  0  0  0
  2 38  1  0  0  0  0
  3 33  1  0  0  0  0
  3 39  1  0  0  0  0
  4 34  1  0  0  0  0
  4 46  1  0  0  0  0
  5 36  1  0  0  0  0
  5 43  1  0  0  0  0
  6 42  1  0  0  0  0
  6 51  1  0  0  0  0
  7 50  1  0  0  0  0
  7 55  1  0  0  0  0
  8 37  2  0  0  0  0
  9 38  2  0  0  0  0
 10 39  2  0  0  0  0
 11 43  2  0  0  0  0
 12 46  2  0  0  0  0
 13 50  2  0  0  0  0
 14 51  2  0  0  0  0
 15 56  1  0  0  0  0
 15 90  1  0  0  0  0
 16 57  1  0  0  0  0
 16 91  1  0  0  0  0
 17 57  2  0  0  0  0
 18 24  2  0  0  0  0
 18 25  1  0  0  0  0
 18 37  1  0  0  0  0
 19 26  2  0  0  0  0
 19 27  1  0  0  0  0
 19 39  1  0  0  0  0
 20 29  2  0  0  0  0
 20 30  1  0  0  0  0
 20 38  1  0  0  0  0
 21 31  2  0  0  0  0
 21 32  1  0  0  0  0
 21 43  1  0  0  0  0
 22 23  1  0  0  0  0
 22 58  1  0  0  0  0
 22 59  1  0  0  0  0
 23 60  1  0  0  0  0
 23 61  1  0  0  0  0
 24 26  1  0  0  0  0
 24 62  1  0  0  0  0
 25 27  2  0  0  0  0
 25 63  1  0  0  0  0
 26 64  1  0  0  0  0
 27 65  1  0  0  0  0
 28 40  2  0  0  0  0
 28 41  1  0  0  0  0
 28 46  1  0  0  0  0
 29 31  1  0  0  0  0
 29 66  1  0  0  0  0
 30 32  2  0  0  0  0
 30 67  1  0  0  0  0
 31 68  1  0  0  0  0
 32 69  1  0  0  0  0
 33 34  1  0  0  0  0
 33 70  1  0  0  0  0
 33 71  1  0  0  0  0
 34 72  1  0  0  0  0
 34 73  1  0  0  0  0
 35 44  2  0  0  0  0
 35 45  1  0  0  0  0
 35 50  1  0  0  0  0
 36 42  1  0  0  0  0
 36 74  1  0  0  0  0
 36 75  1  0  0  0  0
 40 44  1  0  0  0  0
 40 76  1  0  0  0  0
 41 45  2  0  0  0  0
 41 77  1  0  0  0  0
 42 78  1  0  0  0  0
 42 79  1  0  0  0  0
 44 80  1  0  0  0  0
 45 81  1  0  0  0  0
 47 48  2  0  0  0  0
 47 49  1  0  0  0  0
 47 51  1  0  0  0  0
 48 53  1  0  0  0  0
 48 82  1  0  0  0  0
 49 54  2  0  0  0  0
 49 83  1  0  0  0  0
 52 53  2  0  0  0  0
 52 54  1  0  0  0  0
 52 57  1  0  0  0  0
 53 84  1  0  0  0  0
 54 85  1  0  0  0  0
 55 56  1  0  0  0  0
 55 86  1  0  0  0  0
 55 87  1  0  0  0  0
 56 88  1  0  0  0  0
 56 89  1  0  0  0  0
M  END
> <PUBCHEM_COMPOUND_CID>
177844030

> <PUBCHEM_COMPOUND_CANONICALIZED>
1

> <PUBCHEM_CACTVS_COMPLEXITY>
1360

> <PUBCHEM_CACTVS_HBOND_ACCEPTOR>
17

> <PUBCHEM_CACTVS_HBOND_DONOR>
2

> <PUBCHEM_CACTVS_ROTATABLE_BOND>
26

> <PUBCHEM_CACTVS_SUBSKEYS>
AAADcfB8PgAAAAAAAAAAAAAAAAAAAAAAAAAwYMGAAAAAAAABVAAAGgAACAAADACgmAIwCIAABgCIAiDSCAACAAAkAAAIiAEACMgJNjKANRiCcQAkwAELuYeIyDCOQAAAAAAAAACAAAAAAAAAAAAAAAAAAA==

> <PUBCHEM_IUPAC_OPENEYE_NAME>
4-[2-[4-[2-[4-[2-[4-(2-hydroxyethoxycarbonyl)benzoyl]oxyethoxycarbonyl]benzoyl]oxyethoxycarbonyl]benzoyl]oxyethoxycarbonyl]benzoic acid

> <PUBCHEM_IUPAC_CAS_NAME>
4-[2-[[4-[2-[[4-[2-[[4-[2-hydroxyethoxy(oxo)methyl]phenyl]-oxomethoxy]ethoxy-oxomethyl]phenyl]-oxomethoxy]ethoxy-oxomethyl]phenyl]-oxomethoxy]ethoxy-oxomethyl]benzoic acid

> <PUBCHEM_IUPAC_NAME_MARKUP>
4-[2-[4-[2-[4-[2-[4-(2-hydroxyethoxycarbonyl)benzoyl]oxyethoxycarbonyl]benzoyl]oxyethoxycarbonyl]benzoyl]oxyethoxycarbonyl]benzoic acid

> <PUBCHEM_IUPAC_NAME>
4-[2-[4-[2-[4-[2-[4-(2-hydroxyethoxycarbonyl)benzoyl]oxyethoxycarbonyl]benzoyl]oxyethoxycarbonyl]benzoyl]oxyethoxycarbonyl]benzoic acid

> <PUBCHEM_IUPAC_SYSTEMATIC_NAME>
4-[2-[4-[2-[4-[2-[4-(2-hydroxyethyloxycarbonyl)phenyl]carbonyloxyethoxycarbonyl]phenyl]carbonyloxyethoxycarbonyl]phenyl]carbonyloxyethoxycarbonyl]benzoic acid

> <PUBCHEM_IUPAC_TRADITIONAL_NAME>
4-[2-[4-[2-[4-[2-[4-(2-hydroxyethoxycarbonyl)benzoyl]oxyethoxycarbonyl]benzoyl]oxyethoxycarbonyl]benzoyl]oxyethoxycarbonyl]benzoic acid

> <PUBCHEM_IUPAC_INCHI>
InChI=1S/C40H34O17/c41-17-18-51-34(44)27-5-7-28(8-6-27)36(46)54-21-22-55-38(48)31-13-15-32(16-14-31)40(50)57-24-23-56-39(49)30-11-9-29(10-12-30)37(47)53-20-19-52-35(45)26-3-1-25(2-4-26)33(42)43/h1-16,41H,17-24H2,(H,42,43)

> <PUBCHEM_IUPAC_INCHIKEY>
KXFLPOHHHVBAOO-UHFFFAOYSA-N

> <PUBCHEM_XLOGP3_AA>
4.8

> <PUBCHEM_EXACT_MASS>
786.17959961

> <PUBCHEM_MOLECULAR_FORMULA>
C40H34O17

> <PUBCHEM_MOLECULAR_WEIGHT>
786.7

> <PUBCHEM_SMILES>
C1=CC(=CC=C1C(=O)O)C(=O)OCCOC(=O)C2=CC=C(C=C2)C(=O)OCCOC(=O)C3=CC=C(C=C3)C(=O)OCCOC(=O)C4=CC=C(C=C4)C(=O)OCCO

> <PUBCHEM_CONNECTIVITY_SMILES>
C1=CC(=CC=C1C(=O)O)C(=O)OCCOC(=O)C2=CC=C(C=C2)C(=O)OCCOC(=O)C3=CC=C(C=C3)C(=O)OCCOC(=O)C4=CC=C(C=C4)C(=O)OCCO

> <PUBCHEM_CACTVS_TPSA>
242

> <PUBCHEM_MONOISOTOPIC_WEIGHT>
786.17959961

> <PUBCHEM_TOTAL_CHARGE>
0

> <PUBCHEM_HEAVY_ATOM_COUNT>
57

> <PUBCHEM_ATOM_DEF_STEREO_COUNT>
0

> <PUBCHEM_ATOM_UDEF_STEREO_COUNT>
0

> <PUBCHEM_BOND_DEF_STEREO_COUNT>
0

> <PUBCHEM_BOND_UDEF_STEREO_COUNT>
0

> <PUBCHEM_ISOTOPIC_ATOM_COUNT>
0

> <PUBCHEM_COMPONENT_COUNT>
1

> <PUBCHEM_CACTVS_TAUTO_COUNT>
-1

> <PUBCHEM_COORDINATE_TYPE>
1
5
255

> <PUBCHEM_BONDANNOTATIONS>
18  24  8
18  25  8
19  26  8
19  27  8
20  29  8
20  30  8
21  31  8
21  32  8
24  26  8
25  27  8
28  40  8
28  41  8
29  31  8
30  32  8
35  44  8
35  45  8
40  44  8
41  45  8
47  48  8
47  49  8
48  53  8
49  54  8
52  53  8
52  54  8

$$$$
