177843002
  -OEChem-05122608322D

 50 51  0     0  0  0  0  0  0999 V2000
    5.1350   -0.3450    0.0000 O   0  0  0  0  0  0  0  0  0  0  0  0
    6.0010    2.1550    0.0000 O   0  0  0  0  0  0  0  0  0  0  0  0
    3.4030   -5.3450    0.0000 O   0  0  0  0  0  0  0  0  0  0  0  0
    3.4030   -0.3450    0.0000 O   0  0  0  0  0  0  0  0  0  0  0  0
    7.7331    2.1550    0.0000 O   0  0  0  0  0  0  0  0  0  0  0  0
    7.7331    7.1550    0.0000 O   0  0  0  0  0  0  0  0  0  0  0  0
    5.1350   -5.3450    0.0000 O   0  0  0  0  0  0  0  0  0  0  0  0
    2.5369   -7.8450    0.0000 O   0  0  0  0  0  0  0  0  0  0  0  0
    6.0010    7.1550    0.0000 O   0  0  0  0  0  0  0  0  0  0  0  0
    4.2690   -1.8450    0.0000 C   0  0  0  0  0  0  0  0  0  0  0  0
    4.2690   -3.8450    0.0000 C   0  0  0  0  0  0  0  0  0  0  0  0
    5.1350    0.6550    0.0000 C   0  0  0  0  0  0  0  0  0  0  0  0
    6.0010    1.1550    0.0000 C   0  0  0  0  0  0  0  0  0  0  0  0
    6.8671    3.6550    0.0000 C   0  0  0  0  0  0  0  0  0  0  0  0
    3.4030   -2.3450    0.0000 C   0  0  0  0  0  0  0  0  0  0  0  0
    5.1350   -2.3450    0.0000 C   0  0  0  0  0  0  0  0  0  0  0  0
    3.4030   -3.3450    0.0000 C   0  0  0  0  0  0  0  0  0  0  0  0
    5.1350   -3.3450    0.0000 C   0  0  0  0  0  0  0  0  0  0  0  0
    4.2690   -0.8450    0.0000 C   0  0  0  0  0  0  0  0  0  0  0  0
    6.8671    5.6550    0.0000 C   0  0  0  0  0  0  0  0  0  0  0  0
    7.7331    4.1550    0.0000 C   0  0  0  0  0  0  0  0  0  0  0  0
    6.0010    4.1550    0.0000 C   0  0  0  0  0  0  0  0  0  0  0  0
    7.7331    5.1550    0.0000 C   0  0  0  0  0  0  0  0  0  0  0  0
    6.0010    5.1550    0.0000 C   0  0  0  0  0  0  0  0  0  0  0  0
    6.8671    2.6550    0.0000 C   0  0  0  0  0  0  0  0  0  0  0  0
    4.2690   -4.8450    0.0000 C   0  0  0  0  0  0  0  0  0  0  0  0
    3.4030   -6.3450    0.0000 C   0  0  0  0  0  0  0  0  0  0  0  0
    6.8671    6.6550    0.0000 C   0  0  0  0  0  0  0  0  0  0  0  0
    2.5369   -6.8450    0.0000 C   0  0  0  0  0  0  0  0  0  0  0  0
    7.7331    8.1550    0.0000 C   0  0  0  0  0  0  0  0  0  0  0  0
    4.9230    1.2376    0.0000 H   0  0  0  0  0  0  0  0  0  0  0  0
    4.5244    0.5473    0.0000 H   0  0  0  0  0  0  0  0  0  0  0  0
    6.2131    0.5724    0.0000 H   0  0  0  0  0  0  0  0  0  0  0  0
    6.6116    1.2627    0.0000 H   0  0  0  0  0  0  0  0  0  0  0  0
    2.8660   -2.0350    0.0000 H   0  0  0  0  0  0  0  0  0  0  0  0
    5.6720   -2.0350    0.0000 H   0  0  0  0  0  0  0  0  0  0  0  0
    2.8660   -3.6550    0.0000 H   0  0  0  0  0  0  0  0  0  0  0  0
    5.6720   -3.6550    0.0000 H   0  0  0  0  0  0  0  0  0  0  0  0
    8.2700    3.8450    0.0000 H   0  0  0  0  0  0  0  0  0  0  0  0
    5.4641    3.8450    0.0000 H   0  0  0  0  0  0  0  0  0  0  0  0
    8.2700    5.4650    0.0000 H   0  0  0  0  0  0  0  0  0  0  0  0
    5.4641    5.4650    0.0000 H   0  0  0  0  0  0  0  0  0  0  0  0
    3.6150   -6.9276    0.0000 H   0  0  0  0  0  0  0  0  0  0  0  0
    4.0135   -6.2373    0.0000 H   0  0  0  0  0  0  0  0  0  0  0  0
    2.3249   -6.2624    0.0000 H   0  0  0  0  0  0  0  0  0  0  0  0
    1.9264   -6.9527    0.0000 H   0  0  0  0  0  0  0  0  0  0  0  0
    2.0000   -8.1550    0.0000 H   0  0  0  0  0  0  0  0  0  0  0  0
    8.3531    8.1550    0.0000 H   0  0  0  0  0  0  0  0  0  0  0  0
    7.7331    8.7750    0.0000 H   0  0  0  0  0  0  0  0  0  0  0  0
    7.1131    8.1550    0.0000 H   0  0  0  0  0  0  0  0  0  0  0  0
  1 12  1  0  0  0  0
  1 19  1  0  0  0  0
  2 13  1  0  0  0  0
  2 25  1  0  0  0  0
  3 26  1  0  0  0  0
  3 27  1  0  0  0  0
  4 19  2  0  0  0  0
  5 25  2  0  0  0  0
  6 28  1  0  0  0  0
  6 30  1  0  0  0  0
  7 26  2  0  0  0  0
  8 29  1  0  0  0  0
  8 47  1  0  0  0  0
  9 28  2  0  0  0  0
 10 15  2  0  0  0  0
 10 16  1  0  0  0  0
 10 19  1  0  0  0  0
 11 17  2  0  0  0  0
 11 18  1  0  0  0  0
 11 26  1  0  0  0  0
 12 13  1  0  0  0  0
 12 31  1  0  0  0  0
 12 32  1  0  0  0  0
 13 33  1  0  0  0  0
 13 34  1  0  0  0  0
 14 21  2  0  0  0  0
 14 22  1  0  0  0  0
 14 25  1  0  0  0  0
 15 17  1  0  0  0  0
 15 35  1  0  0  0  0
 16 18  2  0  0  0  0
 16 36  1  0  0  0  0
 17 37  1  0  0  0  0
 18 38  1  0  0  0  0
 20 23  2  0  0  0  0
 20 24  1  0  0  0  0
 20 28  1  0  0  0  0
 21 23  1  0  0  0  0
 21 39  1  0  0  0  0
 22 24  2  0  0  0  0
 22 40  1  0  0  0  0
 23 41  1  0  0  0  0
 24 42  1  0  0  0  0
 27 29  1  0  0  0  0
 27 43  1  0  0  0  0
 27 44  1  0  0  0  0
 29 45  1  0  0  0  0
 29 46  1  0  0  0  0
 30 48  1  0  0  0  0
 30 49  1  0  0  0  0
 30 50  1  0  0  0  0
M  END
> <PUBCHEM_COMPOUND_CID>
177843002

> <PUBCHEM_COMPOUND_CANONICALIZED>
1

> <PUBCHEM_CACTVS_COMPLEXITY>
587

> <PUBCHEM_CACTVS_HBOND_ACCEPTOR>
9

> <PUBCHEM_CACTVS_HBOND_DONOR>
1

> <PUBCHEM_CACTVS_ROTATABLE_BOND>
13

> <PUBCHEM_CACTVS_SUBSKEYS>
AAADceB4PAAAAAAAAAAAAAAAAAAAAAAAAAAwYAAAAAAAAAABQAAAGgAACAAADACgmAIyCIAABgCIAiDSCAACAAAkAAAIiAEACMgJNjKANRiCMQAkwAELqYeIyDCOQAAAAAAAAACAAAAAAAAAAAAAAAAAAA==

> <PUBCHEM_IUPAC_OPENEYE_NAME>
O4-[2-[4-(2-hydroxyethoxycarbonyl)benzoyl]oxyethyl] O1-methyl benzene-1,4-dicarboxylate

> <PUBCHEM_IUPAC_CAS_NAME>
benzene-1,4-dicarboxylic acid O4-[2-[[4-[2-hydroxyethoxy(oxo)methyl]phenyl]-oxomethoxy]ethyl] ester O1-methyl ester

> <PUBCHEM_IUPAC_NAME_MARKUP>
4-<I>O</I>-[2-[4-(2-hydroxyethoxycarbonyl)benzoyl]oxyethyl] 1-<I>O</I>-methyl benzene-1,4-dicarboxylate

> <PUBCHEM_IUPAC_NAME>
4-O-[2-[4-(2-hydroxyethoxycarbonyl)benzoyl]oxyethyl] 1-O-methyl benzene-1,4-dicarboxylate

> <PUBCHEM_IUPAC_SYSTEMATIC_NAME>
O4-[2-[4-(2-hydroxyethyloxycarbonyl)phenyl]carbonyloxyethyl] O1-methyl benzene-1,4-dicarboxylate

> <PUBCHEM_IUPAC_TRADITIONAL_NAME>
benzene-1,4-dicarboxylic acid O4-[2-[4-(2-hydroxyethoxycarbonyl)benzoyl]oxyethyl] ester O1-methyl ester

> <PUBCHEM_IUPAC_INCHI>
InChI=1S/C21H20O9/c1-27-18(23)14-2-4-16(5-3-14)20(25)29-12-13-30-21(26)17-8-6-15(7-9-17)19(24)28-11-10-22/h2-9,22H,10-13H2,1H3

> <PUBCHEM_IUPAC_INCHIKEY>
MYMYVNRHLQOWPZ-UHFFFAOYSA-N

> <PUBCHEM_XLOGP3_AA>
2.3

> <PUBCHEM_EXACT_MASS>
416.11073221

> <PUBCHEM_MOLECULAR_FORMULA>
C21H20O9

> <PUBCHEM_MOLECULAR_WEIGHT>
416.4

> <PUBCHEM_SMILES>
COC(=O)C1=CC=C(C=C1)C(=O)OCCOC(=O)C2=CC=C(C=C2)C(=O)OCCO

> <PUBCHEM_CONNECTIVITY_SMILES>
COC(=O)C1=CC=C(C=C1)C(=O)OCCOC(=O)C2=CC=C(C=C2)C(=O)OCCO

> <PUBCHEM_CACTVS_TPSA>
125

> <PUBCHEM_MONOISOTOPIC_WEIGHT>
416.11073221

> <PUBCHEM_TOTAL_CHARGE>
0

> <PUBCHEM_HEAVY_ATOM_COUNT>
30

> <PUBCHEM_ATOM_DEF_STEREO_COUNT>
0

> <PUBCHEM_ATOM_UDEF_STEREO_COUNT>
0

> <PUBCHEM_BOND_DEF_STEREO_COUNT>
0

> <PUBCHEM_BOND_UDEF_STEREO_COUNT>
0

> <PUBCHEM_ISOTOPIC_ATOM_COUNT>
0

> <PUBCHEM_COMPONENT_COUNT>
1

> <PUBCHEM_CACTVS_TAUTO_COUNT>
-1

> <PUBCHEM_COORDINATE_TYPE>
1
5
255

> <PUBCHEM_BONDANNOTATIONS>
10  15  8
10  16  8
11  17  8
11  18  8
14  21  8
14  22  8
15  17  8
16  18  8
20  23  8
20  24  8
21  23  8
22  24  8

$$$$
