177843053
  -OEChem-05122608452D

 36 36  0     1  0  0  0  0  0999 V2000
    5.4641    0.5670    0.0000 C   0  0  0  0  0  0  0  0  0  0  0  0
    4.5981    0.0670    0.0000 C   0  0  1  0  0  0  0  0  0  0  0  0
    4.5981   -0.9330    0.0000 C   0  0  2  0  0  0  0  0  0  0  0  0
    6.3301    0.0670    0.0000 C   0  0  0  0  0  0  0  0  0  0  0  0
    5.4641   -1.4330    0.0000 C   0  0  0  0  0  0  0  0  0  0  0  0
    6.3301   -0.9330    0.0000 C   0  0  0  0  0  0  0  0  0  0  0  0
    3.7321    0.5670    0.0000 C   0  0  0  0  0  0  0  0  0  0  0  0
    5.9641    1.4330    0.0000 C   0  0  0  0  0  0  0  0  0  0  0  0
    4.9641    1.4330    0.0000 C   0  0  0  0  0  0  0  0  0  0  0  0
    3.7321   -1.4330    0.0000 C   0  0  0  0  0  0  0  0  0  0  0  0
    2.8660    0.0670    0.0000 C   0  0  0  0  0  0  0  0  0  0  0  0
    2.0000    0.5670    0.0000 C   0  0  0  0  0  0  0  0  0  0  0  0
    4.5981    0.6870    0.0000 H   0  0  0  0  0  0  0  0  0  0  0  0
    4.5981   -1.5530    0.0000 H   0  0  0  0  0  0  0  0  0  0  0  0
    6.9407   -0.0407    0.0000 H   0  0  0  0  0  0  0  0  0  0  0  0
    6.5422    0.6496    0.0000 H   0  0  0  0  0  0  0  0  0  0  0  0
    5.0656   -1.9080    0.0000 H   0  0  0  0  0  0  0  0  0  0  0  0
    5.8626   -1.9080    0.0000 H   0  0  0  0  0  0  0  0  0  0  0  0
    6.5422   -1.5156    0.0000 H   0  0  0  0  0  0  0  0  0  0  0  0
    6.9407   -0.8254    0.0000 H   0  0  0  0  0  0  0  0  0  0  0  0
    4.1306    1.0419    0.0000 H   0  0  0  0  0  0  0  0  0  0  0  0
    3.3335    1.0419    0.0000 H   0  0  0  0  0  0  0  0  0  0  0  0
    6.5010    1.1230    0.0000 H   0  0  0  0  0  0  0  0  0  0  0  0
    6.2741    1.9700    0.0000 H   0  0  0  0  0  0  0  0  0  0  0  0
    5.4272    1.7430    0.0000 H   0  0  0  0  0  0  0  0  0  0  0  0
    5.5010    1.7430    0.0000 H   0  0  0  0  0  0  0  0  0  0  0  0
    4.6541    1.9700    0.0000 H   0  0  0  0  0  0  0  0  0  0  0  0
    4.4272    1.1230    0.0000 H   0  0  0  0  0  0  0  0  0  0  0  0
    3.4221   -0.8961    0.0000 H   0  0  0  0  0  0  0  0  0  0  0  0
    3.1951   -1.7430    0.0000 H   0  0  0  0  0  0  0  0  0  0  0  0
    4.0421   -1.9700    0.0000 H   0  0  0  0  0  0  0  0  0  0  0  0
    2.4675   -0.4080    0.0000 H   0  0  0  0  0  0  0  0  0  0  0  0
    3.2646   -0.4080    0.0000 H   0  0  0  0  0  0  0  0  0  0  0  0
    2.3100    1.1039    0.0000 H   0  0  0  0  0  0  0  0  0  0  0  0
    1.4631    0.8770    0.0000 H   0  0  0  0  0  0  0  0  0  0  0  0
    1.6900    0.0301    0.0000 H   0  0  0  0  0  0  0  0  0  0  0  0
  1  2  1  0  0  0  0
  1  4  1  0  0  0  0
  1  8  1  0  0  0  0
  1  9  1  0  0  0  0
  2  3  1  0  0  0  0
  2  7  1  1  0  0  0
  2 13  1  0  0  0  0
  3  5  1  0  0  0  0
  3 10  1  6  0  0  0
  3 14  1  0  0  0  0
  4  6  1  0  0  0  0
  4 15  1  0  0  0  0
  4 16  1  0  0  0  0
  5  6  1  0  0  0  0
  5 17  1  0  0  0  0
  5 18  1  0  0  0  0
  6 19  1  0  0  0  0
  6 20  1  0  0  0  0
  7 11  1  0  0  0  0
  7 21  1  0  0  0  0
  7 22  1  0  0  0  0
  8 23  1  0  0  0  0
  8 24  1  0  0  0  0
  8 25  1  0  0  0  0
  9 26  1  0  0  0  0
  9 27  1  0  0  0  0
  9 28  1  0  0  0  0
 10 29  1  0  0  0  0
 10 30  1  0  0  0  0
 10 31  1  0  0  0  0
 11 12  1  0  0  0  0
 11 32  1  0  0  0  0
 11 33  1  0  0  0  0
 12 34  1  0  0  0  0
 12 35  1  0  0  0  0
 12 36  1  0  0  0  0
M  END
> <PUBCHEM_COMPOUND_CID>
177843053

> <PUBCHEM_COMPOUND_CANONICALIZED>
1

> <PUBCHEM_CACTVS_COMPLEXITY>
135

> <PUBCHEM_CACTVS_HBOND_ACCEPTOR>
0

> <PUBCHEM_CACTVS_HBOND_DONOR>
0

> <PUBCHEM_CACTVS_ROTATABLE_BOND>
2

> <PUBCHEM_CACTVS_SUBSKEYS>
AAADceBwAAAAAAAAAAAAAAAAAAAAAAAAAAAwAAAAAAAAAAAAAAAAGAAAAAAADwCAAAACAAAAAAAAAAAAAAAAAAAAAAAAAAAAAAAAAAIAAAAAAAAAAAAAAAEAgMAPgAAAAAAAAAAAAAQAACAAAAAAAAAAAA==

> <PUBCHEM_IUPAC_OPENEYE_NAME>
cis-(2R,3S)-1,1,3-trimethyl-2-propyl-cyclohexane

> <PUBCHEM_IUPAC_CAS_NAME>
cis-(2R,3S)-1,1,3-trimethyl-2-propylcyclohexane

> <PUBCHEM_IUPAC_NAME_MARKUP>
cis-(2<I>R</I>,3<I>S</I>)-1,1,3-trimethyl-2-propylcyclohexane

> <PUBCHEM_IUPAC_NAME>
cis-(2R,3S)-1,1,3-trimethyl-2-propylcyclohexane

> <PUBCHEM_IUPAC_SYSTEMATIC_NAME>
cis-(2R,3S)-1,1,3-trimethyl-2-propyl-cyclohexane

> <PUBCHEM_IUPAC_TRADITIONAL_NAME>
cis-(2R,3S)-1,1,3-trimethyl-2-propyl-cyclohexane

> <PUBCHEM_IUPAC_INCHI>
InChI=1S/C12H24/c1-5-7-11-10(2)8-6-9-12(11,3)4/h10-11H,5-9H2,1-4H3/t10-,11+/m0/s1

> <PUBCHEM_IUPAC_INCHIKEY>
AOJINVFBSSUEIK-WDEREUQCSA-N

> <PUBCHEM_XLOGP3_AA>
5.5

> <PUBCHEM_EXACT_MASS>
168.187800766

> <PUBCHEM_MOLECULAR_FORMULA>
C12H24

> <PUBCHEM_MOLECULAR_WEIGHT>
168.32

> <PUBCHEM_SMILES>
CCC[C@@H]1[C@H](CCCC1(C)C)C

> <PUBCHEM_CONNECTIVITY_SMILES>
CCCC1C(CCCC1(C)C)C

> <PUBCHEM_CACTVS_TPSA>
0

> <PUBCHEM_MONOISOTOPIC_WEIGHT>
168.187800766

> <PUBCHEM_TOTAL_CHARGE>
0

> <PUBCHEM_HEAVY_ATOM_COUNT>
12

> <PUBCHEM_ATOM_DEF_STEREO_COUNT>
2

> <PUBCHEM_ATOM_UDEF_STEREO_COUNT>
0

> <PUBCHEM_BOND_DEF_STEREO_COUNT>
0

> <PUBCHEM_BOND_UDEF_STEREO_COUNT>
0

> <PUBCHEM_ISOTOPIC_ATOM_COUNT>
0

> <PUBCHEM_COMPONENT_COUNT>
1

> <PUBCHEM_CACTVS_TAUTO_COUNT>
-1

> <PUBCHEM_COORDINATE_TYPE>
1
5
255

> <PUBCHEM_BONDANNOTATIONS>
2  7  5
3  10  6

$$$$
