177843014
  -OEChem-05122608242D

152152  0     0  0  0  0  0  0999 V2000
   19.2113   -5.8891    0.0000 O   0  0  0  0  0  0  0  0  0  0  0  0
   14.8550   -9.2318    0.0000 O   0  0  0  0  0  0  0  0  0  0  0  0
   20.4636    3.6232    0.0000 O   0  0  0  0  0  0  0  0  0  0  0  0
   17.1209    7.9795    0.0000 O   0  0  0  0  0  0  0  0  0  0  0  0
    5.3427   -7.9795    0.0000 O   0  0  0  0  0  0  0  0  0  0  0  0
    2.0000   -3.6232    0.0000 O   0  0  0  0  0  0  0  0  0  0  0  0
    7.6086    9.2318    0.0000 O   0  0  0  0  0  0  0  0  0  0  0  0
    3.2523    5.8891    0.0000 O   0  0  0  0  0  0  0  0  0  0  0  0
   18.9545   -4.4587    0.0000 N   0  0  0  0  0  0  0  0  0  0  0  0
   13.5398   -8.6135    0.0000 N   0  0  0  0  0  0  0  0  0  0  0  0
   19.8453    2.3080    0.0000 N   0  0  0  0  0  0  0  0  0  0  0  0
    6.7731   -7.7227    0.0000 N   0  0  0  0  0  0  0  0  0  0  0  0
   15.6905    7.7227    0.0000 N   0  0  0  0  0  0  0  0  0  0  0  0
    2.6183   -2.3080    0.0000 N   0  0  0  0  0  0  0  0  0  0  0  0
    8.9238    8.6135    0.0000 N   0  0  0  0  0  0  0  0  0  0  0  0
    3.5092    4.4587    0.0000 N   0  0  0  0  0  0  0  0  0  0  0  0
   19.9937   -1.6578    0.0000 C   0  0  0  0  0  0  0  0  0  0  0  0
   20.1242   -0.6664    0.0000 C   0  0  0  0  0  0  0  0  0  0  0  0
   10.5654   -8.8924    0.0000 C   0  0  0  0  0  0  0  0  0  0  0  0
    9.5740   -8.7619    0.0000 C   0  0  0  0  0  0  0  0  0  0  0  0
   12.8896    8.7619    0.0000 C   0  0  0  0  0  0  0  0  0  0  0  0
   11.8982    8.8924    0.0000 C   0  0  0  0  0  0  0  0  0  0  0  0
    2.3394    0.6664    0.0000 C   0  0  0  0  0  0  0  0  0  0  0  0
    2.4699    1.6578    0.0000 C   0  0  0  0  0  0  0  0  0  0  0  0
   19.7530   -2.6284    0.0000 C   0  0  0  0  0  0  0  0  0  0  0  0
   20.1429    0.3334    0.0000 C   0  0  0  0  0  0  0  0  0  0  0  0
   11.5652   -8.9111    0.0000 C   0  0  0  0  0  0  0  0  0  0  0  0
    8.6034   -8.5212    0.0000 C   0  0  0  0  0  0  0  0  0  0  0  0
   13.8602    8.5212    0.0000 C   0  0  0  0  0  0  0  0  0  0  0  0
   10.8984    8.9111    0.0000 C   0  0  0  0  0  0  0  0  0  0  0  0
    2.3207   -0.3334    0.0000 C   0  0  0  0  0  0  0  0  0  0  0  0
    2.7106    2.6284    0.0000 C   0  0  0  0  0  0  0  0  0  0  0  0
   19.4051   -3.5660    0.0000 C   0  0  0  0  0  0  0  0  0  0  0  0
   20.0496    1.3291    0.0000 C   0  0  0  0  0  0  0  0  0  0  0  0
   12.5609   -8.8178    0.0000 C   0  0  0  0  0  0  0  0  0  0  0  0
    7.6658   -8.1733    0.0000 C   0  0  0  0  0  0  0  0  0  0  0  0
   14.7978    8.1733    0.0000 C   0  0  0  0  0  0  0  0  0  0  0  0
    9.9027    8.8178    0.0000 C   0  0  0  0  0  0  0  0  0  0  0  0
    2.4141   -1.3291    0.0000 C   0  0  0  0  0  0  0  0  0  0  0  0
    3.0585    3.5660    0.0000 C   0  0  0  0  0  0  0  0  0  0  0  0
   17.0485   -6.7591    0.0000 C   0  0  0  0  0  0  0  0  0  0  0  0
   16.2551   -7.3679    0.0000 C   0  0  0  0  0  0  0  0  0  0  0  0
   18.5997    5.0233    0.0000 C   0  0  0  0  0  0  0  0  0  0  0  0
   17.9909    5.8167    0.0000 C   0  0  0  0  0  0  0  0  0  0  0  0
    4.4727   -5.8167    0.0000 C   0  0  0  0  0  0  0  0  0  0  0  0
    3.8639   -5.0233    0.0000 C   0  0  0  0  0  0  0  0  0  0  0  0
    6.2085    7.3679    0.0000 C   0  0  0  0  0  0  0  0  0  0  0  0
    5.4151    6.7591    0.0000 C   0  0  0  0  0  0  0  0  0  0  0  0
   17.7687   -6.0653    0.0000 C   0  0  0  0  0  0  0  0  0  0  0  0
   15.3986   -7.8840    0.0000 C   0  0  0  0  0  0  0  0  0  0  0  0
   19.1158    4.1668    0.0000 C   0  0  0  0  0  0  0  0  0  0  0  0
   17.2971    6.5369    0.0000 C   0  0  0  0  0  0  0  0  0  0  0  0
    5.1665   -6.5369    0.0000 C   0  0  0  0  0  0  0  0  0  0  0  0
    3.3478   -4.1668    0.0000 C   0  0  0  0  0  0  0  0  0  0  0  0
    7.0650    7.8840    0.0000 C   0  0  0  0  0  0  0  0  0  0  0  0
    4.6949    6.0653    0.0000 C   0  0  0  0  0  0  0  0  0  0  0  0
   18.4067   -5.2953    0.0000 C   0  0  0  0  0  0  0  0  0  0  0  0
   14.4897   -8.3009    0.0000 C   0  0  0  0  0  0  0  0  0  0  0  0
   19.5327    3.2579    0.0000 C   0  0  0  0  0  0  0  0  0  0  0  0
   16.5271    7.1749    0.0000 C   0  0  0  0  0  0  0  0  0  0  0  0
    5.9365   -7.1749    0.0000 C   0  0  0  0  0  0  0  0  0  0  0  0
    2.9309   -3.2579    0.0000 C   0  0  0  0  0  0  0  0  0  0  0  0
    7.9739    8.3009    0.0000 C   0  0  0  0  0  0  0  0  0  0  0  0
    4.0569    5.2953    0.0000 C   0  0  0  0  0  0  0  0  0  0  0  0
   20.4560   -2.0710    0.0000 H   0  0  0  0  0  0  0  0  0  0  0  0
   19.3845   -1.5426    0.0000 H   0  0  0  0  0  0  0  0  0  0  0  0
   20.6299   -1.0252    0.0000 H   0  0  0  0  0  0  0  0  0  0  0  0
   19.5060   -0.6201    0.0000 H   0  0  0  0  0  0  0  0  0  0  0  0
   10.2066   -9.3981    0.0000 H   0  0  0  0  0  0  0  0  0  0  0  0
   10.6117   -8.2742    0.0000 H   0  0  0  0  0  0  0  0  0  0  0  0
    9.1608   -9.2242    0.0000 H   0  0  0  0  0  0  0  0  0  0  0  0
    9.6892   -8.1527    0.0000 H   0  0  0  0  0  0  0  0  0  0  0  0
   13.3028    9.2242    0.0000 H   0  0  0  0  0  0  0  0  0  0  0  0
   12.7744    8.1527    0.0000 H   0  0  0  0  0  0  0  0  0  0  0  0
   12.2570    9.3981    0.0000 H   0  0  0  0  0  0  0  0  0  0  0  0
   11.8519    8.2742    0.0000 H   0  0  0  0  0  0  0  0  0  0  0  0
    1.8337    1.0252    0.0000 H   0  0  0  0  0  0  0  0  0  0  0  0
    2.9577    0.6201    0.0000 H   0  0  0  0  0  0  0  0  0  0  0  0
    2.0076    2.0710    0.0000 H   0  0  0  0  0  0  0  0  0  0  0  0
    3.0791    1.5426    0.0000 H   0  0  0  0  0  0  0  0  0  0  0  0
   20.1661   -3.0907    0.0000 H   0  0  0  0  0  0  0  0  0  0  0  0
   19.1605   -2.4457    0.0000 H   0  0  0  0  0  0  0  0  0  0  0  0
   20.6856    0.0335    0.0000 H   0  0  0  0  0  0  0  0  0  0  0  0
   19.5234    0.3102    0.0000 H   0  0  0  0  0  0  0  0  0  0  0  0
   11.2653   -9.4538    0.0000 H   0  0  0  0  0  0  0  0  0  0  0  0
   11.5421   -8.2916    0.0000 H   0  0  0  0  0  0  0  0  0  0  0  0
    8.1411   -8.9343    0.0000 H   0  0  0  0  0  0  0  0  0  0  0  0
    8.7861   -7.9287    0.0000 H   0  0  0  0  0  0  0  0  0  0  0  0
   14.3225    8.9343    0.0000 H   0  0  0  0  0  0  0  0  0  0  0  0
   13.6775    7.9287    0.0000 H   0  0  0  0  0  0  0  0  0  0  0  0
   11.1983    9.4538    0.0000 H   0  0  0  0  0  0  0  0  0  0  0  0
   10.9216    8.2916    0.0000 H   0  0  0  0  0  0  0  0  0  0  0  0
    1.7781   -0.0335    0.0000 H   0  0  0  0  0  0  0  0  0  0  0  0
    2.9403   -0.3102    0.0000 H   0  0  0  0  0  0  0  0  0  0  0  0
    2.2975    3.0907    0.0000 H   0  0  0  0  0  0  0  0  0  0  0  0
    3.3031    2.4457    0.0000 H   0  0  0  0  0  0  0  0  0  0  0  0
   19.7639   -4.0716    0.0000 H   0  0  0  0  0  0  0  0  0  0  0  0
   18.8368   -3.3181    0.0000 H   0  0  0  0  0  0  0  0  0  0  0  0
   20.6224    1.0918    0.0000 H   0  0  0  0  0  0  0  0  0  0  0  0
   19.4365    1.2367    0.0000 H   0  0  0  0  0  0  0  0  0  0  0  0
   12.3236   -9.3906    0.0000 H   0  0  0  0  0  0  0  0  0  0  0  0
   12.4685   -8.2047    0.0000 H   0  0  0  0  0  0  0  0  0  0  0  0
    7.1602   -8.5321    0.0000 H   0  0  0  0  0  0  0  0  0  0  0  0
    7.9138   -7.6050    0.0000 H   0  0  0  0  0  0  0  0  0  0  0  0
   15.3034    8.5321    0.0000 H   0  0  0  0  0  0  0  0  0  0  0  0
   14.5499    7.6050    0.0000 H   0  0  0  0  0  0  0  0  0  0  0  0
   10.1400    9.3906    0.0000 H   0  0  0  0  0  0  0  0  0  0  0  0
    9.9952    8.2047    0.0000 H   0  0  0  0  0  0  0  0  0  0  0  0
    1.8412   -1.0918    0.0000 H   0  0  0  0  0  0  0  0  0  0  0  0
    3.0271   -1.2367    0.0000 H   0  0  0  0  0  0  0  0  0  0  0  0
    2.6997    4.0716    0.0000 H   0  0  0  0  0  0  0  0  0  0  0  0
    3.6268    3.3181    0.0000 H   0  0  0  0  0  0  0  0  0  0  0  0
   17.1523   -7.3703    0.0000 H   0  0  0  0  0  0  0  0  0  0  0  0
   16.6441   -6.2892    0.0000 H   0  0  0  0  0  0  0  0  0  0  0  0
   16.2899   -7.9869    0.0000 H   0  0  0  0  0  0  0  0  0  0  0  0
   15.9059   -6.8556    0.0000 H   0  0  0  0  0  0  0  0  0  0  0  0
   19.2187    5.0581    0.0000 H   0  0  0  0  0  0  0  0  0  0  0  0
   18.0874    4.6741    0.0000 H   0  0  0  0  0  0  0  0  0  0  0  0
   18.6021    5.9205    0.0000 H   0  0  0  0  0  0  0  0  0  0  0  0
   17.5210    5.4123    0.0000 H   0  0  0  0  0  0  0  0  0  0  0  0
    3.8615   -5.9205    0.0000 H   0  0  0  0  0  0  0  0  0  0  0  0
    4.9426   -5.4123    0.0000 H   0  0  0  0  0  0  0  0  0  0  0  0
    3.2449   -5.0581    0.0000 H   0  0  0  0  0  0  0  0  0  0  0  0
    4.3762   -4.6741    0.0000 H   0  0  0  0  0  0  0  0  0  0  0  0
    6.1737    7.9869    0.0000 H   0  0  0  0  0  0  0  0  0  0  0  0
    6.5577    6.8556    0.0000 H   0  0  0  0  0  0  0  0  0  0  0  0
    5.3113    7.3703    0.0000 H   0  0  0  0  0  0  0  0  0  0  0  0
    5.8196    6.2892    0.0000 H   0  0  0  0  0  0  0  0  0  0  0  0
   17.9403   -6.6611    0.0000 H   0  0  0  0  0  0  0  0  0  0  0  0
   17.3142   -5.6436    0.0000 H   0  0  0  0  0  0  0  0  0  0  0  0
   15.3638   -8.5030    0.0000 H   0  0  0  0  0  0  0  0  0  0  0  0
   15.1089   -7.3358    0.0000 H   0  0  0  0  0  0  0  0  0  0  0  0
   19.7348    4.1320    0.0000 H   0  0  0  0  0  0  0  0  0  0  0  0
   18.5676    3.8771    0.0000 H   0  0  0  0  0  0  0  0  0  0  0  0
   17.8929    6.7085    0.0000 H   0  0  0  0  0  0  0  0  0  0  0  0
   16.8754    6.0824    0.0000 H   0  0  0  0  0  0  0  0  0  0  0  0
    4.5707   -6.7085    0.0000 H   0  0  0  0  0  0  0  0  0  0  0  0
    5.5882   -6.0824    0.0000 H   0  0  0  0  0  0  0  0  0  0  0  0
    2.7288   -4.1320    0.0000 H   0  0  0  0  0  0  0  0  0  0  0  0
    3.8960   -3.8771    0.0000 H   0  0  0  0  0  0  0  0  0  0  0  0
    7.0998    8.5030    0.0000 H   0  0  0  0  0  0  0  0  0  0  0  0
    7.3547    7.3358    0.0000 H   0  0  0  0  0  0  0  0  0  0  0  0
    4.5233    6.6611    0.0000 H   0  0  0  0  0  0  0  0  0  0  0  0
    5.1494    5.6436    0.0000 H   0  0  0  0  0  0  0  0  0  0  0  0
   19.4914   -4.7687    0.0000 H   0  0  0  0  0  0  0  0  0  0  0  0
   13.7003   -9.2124    0.0000 H   0  0  0  0  0  0  0  0  0  0  0  0
   20.4442    2.4685    0.0000 H   0  0  0  0  0  0  0  0  0  0  0  0
    6.4631   -8.2596    0.0000 H   0  0  0  0  0  0  0  0  0  0  0  0
   16.0005    8.2596    0.0000 H   0  0  0  0  0  0  0  0  0  0  0  0
    2.0194   -2.4685    0.0000 H   0  0  0  0  0  0  0  0  0  0  0  0
    8.7634    9.2124    0.0000 H   0  0  0  0  0  0  0  0  0  0  0  0
    2.9722    4.7687    0.0000 H   0  0  0  0  0  0  0  0  0  0  0  0
  1 57  2  0  0  0  0
  2 58  2  0  0  0  0
  3 59  2  0  0  0  0
  4 60  2  0  0  0  0
  5 61  2  0  0  0  0
  6 62  2  0  0  0  0
  7 63  2  0  0  0  0
  8 64  2  0  0  0  0
  9 33  1  0  0  0  0
  9 57  1  0  0  0  0
  9145  1  0  0  0  0
 10 35  1  0  0  0  0
 10 58  1  0  0  0  0
 10146  1  0  0  0  0
 11 34  1  0  0  0  0
 11 59  1  0  0  0  0
 11147  1  0  0  0  0
 12 36  1  0  0  0  0
 12 61  1  0  0  0  0
 12148  1  0  0  0  0
 13 37  1  0  0  0  0
 13 60  1  0  0  0  0
 13149  1  0  0  0  0
 14 39  1  0  0  0  0
 14 62  1  0  0  0  0
 14150  1  0  0  0  0
 15 38  1  0  0  0  0
 15 63  1  0  0  0  0
 15151  1  0  0  0  0
 16 40  1  0  0  0  0
 16 64  1  0  0  0  0
 16152  1  0  0  0  0
 17 18  1  0  0  0  0
 17 25  1  0  0  0  0
 17 65  1  0  0  0  0
 17 66  1  0  0  0  0
 18 26  1  0  0  0  0
 18 67  1  0  0  0  0
 18 68  1  0  0  0  0
 19 20  1  0  0  0  0
 19 27  1  0  0  0  0
 19 69  1  0  0  0  0
 19 70  1  0  0  0  0
 20 28  1  0  0  0  0
 20 71  1  0  0  0  0
 20 72  1  0  0  0  0
 21 22  1  0  0  0  0
 21 29  1  0  0  0  0
 21 73  1  0  0  0  0
 21 74  1  0  0  0  0
 22 30  1  0  0  0  0
 22 75  1  0  0  0  0
 22 76  1  0  0  0  0
 23 24  1  0  0  0  0
 23 31  1  0  0  0  0
 23 77  1  0  0  0  0
 23 78  1  0  0  0  0
 24 32  1  0  0  0  0
 24 79  1  0  0  0  0
 24 80  1  0  0  0  0
 25 33  1  0  0  0  0
 25 81  1  0  0  0  0
 25 82  1  0  0  0  0
 26 34  1  0  0  0  0
 26 83  1  0  0  0  0
 26 84  1  0  0  0  0
 27 35  1  0  0  0  0
 27 85  1  0  0  0  0
 27 86  1  0  0  0  0
 28 36  1  0  0  0  0
 28 87  1  0  0  0  0
 28 88  1  0  0  0  0
 29 37  1  0  0  0  0
 29 89  1  0  0  0  0
 29 90  1  0  0  0  0
 30 38  1  0  0  0  0
 30 91  1  0  0  0  0
 30 92  1  0  0  0  0
 31 39  1  0  0  0  0
 31 93  1  0  0  0  0
 31 94  1  0  0  0  0
 32 40  1  0  0  0  0
 32 95  1  0  0  0  0
 32 96  1  0  0  0  0
 33 97  1  0  0  0  0
 33 98  1  0  0  0  0
 34 99  1  0  0  0  0
 34100  1  0  0  0  0
 35101  1  0  0  0  0
 35102  1  0  0  0  0
 36103  1  0  0  0  0
 36104  1  0  0  0  0
 37105  1  0  0  0  0
 37106  1  0  0  0  0
 38107  1  0  0  0  0
 38108  1  0  0  0  0
 39109  1  0  0  0  0
 39110  1  0  0  0  0
 40111  1  0  0  0  0
 40112  1  0  0  0  0
 41 42  1  0  0  0  0
 41 49  1  0  0  0  0
 41113  1  0  0  0  0
 41114  1  0  0  0  0
 42 50  1  0  0  0  0
 42115  1  0  0  0  0
 42116  1  0  0  0  0
 43 44  1  0  0  0  0
 43 51  1  0  0  0  0
 43117  1  0  0  0  0
 43118  1  0  0  0  0
 44 52  1  0  0  0  0
 44119  1  0  0  0  0
 44120  1  0  0  0  0
 45 46  1  0  0  0  0
 45 53  1  0  0  0  0
 45121  1  0  0  0  0
 45122  1  0  0  0  0
 46 54  1  0  0  0  0
 46123  1  0  0  0  0
 46124  1  0  0  0  0
 47 48  1  0  0  0  0
 47 55  1  0  0  0  0
 47125  1  0  0  0  0
 47126  1  0  0  0  0
 48 56  1  0  0  0  0
 48127  1  0  0  0  0
 48128  1  0  0  0  0
 49 57  1  0  0  0  0
 49129  1  0  0  0  0
 49130  1  0  0  0  0
 50 58  1  0  0  0  0
 50131  1  0  0  0  0
 50132  1  0  0  0  0
 51 59  1  0  0  0  0
 51133  1  0  0  0  0
 51134  1  0  0  0  0
 52 60  1  0  0  0  0
 52135  1  0  0  0  0
 52136  1  0  0  0  0
 53 61  1  0  0  0  0
 53137  1  0  0  0  0
 53138  1  0  0  0  0
 54 62  1  0  0  0  0
 54139  1  0  0  0  0
 54140  1  0  0  0  0
 55 63  1  0  0  0  0
 55141  1  0  0  0  0
 55142  1  0  0  0  0
 56 64  1  0  0  0  0
 56143  1  0  0  0  0
 56144  1  0  0  0  0
M  END
> <PUBCHEM_COMPOUND_CID>
177843014

> <PUBCHEM_COMPOUND_CANONICALIZED>
1

> <PUBCHEM_CACTVS_COMPLEXITY>
1010

> <PUBCHEM_CACTVS_HBOND_ACCEPTOR>
8

> <PUBCHEM_CACTVS_HBOND_DONOR>
8

> <PUBCHEM_CACTVS_ROTATABLE_BOND>
0

> <PUBCHEM_CACTVS_SUBSKEYS>
AAADcfB//AAAAAAAAAAAAAAAAAAAAAAAAAAAAAAAAAAAAAAAAAAAHgAQAAAACADBgAQAAALAAAAIAAEQEAAAAAAAAAAAAIEIAAAAABIAgAAEAAAAFgCAAAEYCAAAAAAAAAAAAAAAAAAAAAAAAAAAAAAAAA==

> <PUBCHEM_IUPAC_OPENEYE_NAME>
1,8,15,22,29,36,43,50-octazacyclohexapentacontane-2,7,16,21,30,35,44,49-octone

> <PUBCHEM_IUPAC_CAS_NAME>
1,8,15,22,29,36,43,50-octazacyclohexapentacontane-2,7,16,21,30,35,44,49-octone

> <PUBCHEM_IUPAC_NAME_MARKUP>
1,8,15,22,29,36,43,50-octazacyclohexapentacontane-2,7,16,21,30,35,44,49-octone

> <PUBCHEM_IUPAC_NAME>
1,8,15,22,29,36,43,50-octazacyclohexapentacontane-2,7,16,21,30,35,44,49-octone

> <PUBCHEM_IUPAC_SYSTEMATIC_NAME>
1,8,15,22,29,36,43,50-octazacyclohexapentacontane-2,7,16,21,30,35,44,49-octone

> <PUBCHEM_IUPAC_TRADITIONAL_NAME>
1,8,15,22,29,36,43,50-octazacyclohexapentacontane-2,7,16,21,30,35,44,49-tetraquinone

> <PUBCHEM_IUPAC_INCHI>
InChI=1S/C48H88N8O8/c57-41-25-9-10-27-43(59)51-35-19-3-4-21-37-53-45(61)29-13-14-31-47(63)55-39-23-7-8-24-40-56-48(64)32-16-15-30-46(62)54-38-22-6-5-20-36-52-44(60)28-12-11-26-42(58)50-34-18-2-1-17-33-49-41/h1-40H2,(H,49,57)(H,50,58)(H,51,59)(H,52,60)(H,53,61)(H,54,62)(H,55,63)(H,56,64)

> <PUBCHEM_IUPAC_INCHIKEY>
NEIURPSLFBNGGW-UHFFFAOYSA-N

> <PUBCHEM_XLOGP3_AA>
2.6

> <PUBCHEM_EXACT_MASS>
904.67251180

> <PUBCHEM_MOLECULAR_FORMULA>
C48H88N8O8

> <PUBCHEM_MOLECULAR_WEIGHT>
905.3

> <PUBCHEM_SMILES>
C1CCCNC(=O)CCCCC(=O)NCCCCCCNC(=O)CCCCC(=O)NCCCCCCNC(=O)CCCCC(=O)NCCCCCCNC(=O)CCCCC(=O)NCC1

> <PUBCHEM_CONNECTIVITY_SMILES>
C1CCCNC(=O)CCCCC(=O)NCCCCCCNC(=O)CCCCC(=O)NCCCCCCNC(=O)CCCCC(=O)NCCCCCCNC(=O)CCCCC(=O)NCC1

> <PUBCHEM_CACTVS_TPSA>
233

> <PUBCHEM_MONOISOTOPIC_WEIGHT>
904.67251180

> <PUBCHEM_TOTAL_CHARGE>
0

> <PUBCHEM_HEAVY_ATOM_COUNT>
64

> <PUBCHEM_ATOM_DEF_STEREO_COUNT>
0

> <PUBCHEM_ATOM_UDEF_STEREO_COUNT>
0

> <PUBCHEM_BOND_DEF_STEREO_COUNT>
0

> <PUBCHEM_BOND_UDEF_STEREO_COUNT>
0

> <PUBCHEM_ISOTOPIC_ATOM_COUNT>
0

> <PUBCHEM_COMPONENT_COUNT>
1

> <PUBCHEM_CACTVS_TAUTO_COUNT>
-1

> <PUBCHEM_COORDINATE_TYPE>
1
5
255

$$$$
