177843058
  -OEChem-05122608472D

114120  0     0  0  0  0  0  0999 V2000
   12.3923   -4.4950    0.0000 O   0  0  0  0  0  0  0  0  0  0  0  0
    7.1962   -5.4950    0.0000 O   0  0  0  0  0  0  0  0  0  0  0  0
   12.3923    0.5050    0.0000 O   0  0  0  0  0  0  0  0  0  0  0  0
    3.7321   -1.4950    0.0000 O   0  0  0  0  0  0  0  0  0  0  0  0
    8.9282    4.5050    0.0000 O   0  0  0  0  0  0  0  0  0  0  0  0
    3.7321    3.5050    0.0000 O   0  0  0  0  0  0  0  0  0  0  0  0
   14.1244   -4.4950    0.0000 O   0  0  0  0  0  0  0  0  0  0  0  0
   14.1244    0.5050    0.0000 O   0  0  0  0  0  0  0  0  0  0  0  0
    8.0622   -3.9950    0.0000 O   0  0  0  0  0  0  0  0  0  0  0  0
    2.8660   -2.9950    0.0000 O   0  0  0  0  0  0  0  0  0  0  0  0
    8.0622    6.0050    0.0000 O   0  0  0  0  0  0  0  0  0  0  0  0
    4.5981    2.0050    0.0000 O   0  0  0  0  0  0  0  0  0  0  0  0
   10.6603   -4.4950    0.0000 C   0  0  0  0  0  0  0  0  0  0  0  0
    8.9282   -5.4950    0.0000 C   0  0  0  0  0  0  0  0  0  0  0  0
   11.5263    2.0050    0.0000 C   0  0  0  0  0  0  0  0  0  0  0  0
    9.7942    3.0050    0.0000 C   0  0  0  0  0  0  0  0  0  0  0  0
    2.8660    0.0050    0.0000 C   0  0  0  0  0  0  0  0  0  0  0  0
    2.8660    2.0050    0.0000 C   0  0  0  0  0  0  0  0  0  0  0  0
    8.9282   -4.4950    0.0000 C   0  0  0  0  0  0  0  0  0  0  0  0
    9.7942   -3.9950    0.0000 C   0  0  0  0  0  0  0  0  0  0  0  0
    9.7962   -6.0050    0.0000 C   0  0  0  0  0  0  0  0  0  0  0  0
   10.6680   -5.5017    0.0000 C   0  0  0  0  0  0  0  0  0  0  0  0
    9.7942    2.0050    0.0000 C   0  0  0  0  0  0  0  0  0  0  0  0
   10.6603    1.5050    0.0000 C   0  0  0  0  0  0  0  0  0  0  0  0
   10.6622    3.5151    0.0000 C   0  0  0  0  0  0  0  0  0  0  0  0
   11.5340    3.0117    0.0000 C   0  0  0  0  0  0  0  0  0  0  0  0
    2.0000    1.5050    0.0000 C   0  0  0  0  0  0  0  0  0  0  0  0
    2.0000    0.5050    0.0000 C   0  0  0  0  0  0  0  0  0  0  0  0
    3.7417    1.5084    0.0000 C   0  0  0  0  0  0  0  0  0  0  0  0
    3.7417    0.5017    0.0000 C   0  0  0  0  0  0  0  0  0  0  0  0
   11.5263   -3.9950    0.0000 C   0  0  0  0  0  0  0  0  0  0  0  0
    8.0622   -5.9950    0.0000 C   0  0  0  0  0  0  0  0  0  0  0  0
   12.3923    1.5050    0.0000 C   0  0  0  0  0  0  0  0  0  0  0  0
    8.9282    3.5050    0.0000 C   0  0  0  0  0  0  0  0  0  0  0  0
    2.8660   -0.9950    0.0000 C   0  0  0  0  0  0  0  0  0  0  0  0
    2.8660    3.0050    0.0000 C   0  0  0  0  0  0  0  0  0  0  0  0
   13.2583   -3.9950    0.0000 C   0  0  0  0  0  0  0  0  0  0  0  0
   13.2583    0.0050    0.0000 C   0  0  0  0  0  0  0  0  0  0  0  0
    7.1962   -4.4950    0.0000 C   0  0  0  0  0  0  0  0  0  0  0  0
    3.7321   -2.4950    0.0000 C   0  0  0  0  0  0  0  0  0  0  0  0
    8.0622    5.0050    0.0000 C   0  0  0  0  0  0  0  0  0  0  0  0
    4.5981    3.0050    0.0000 C   0  0  0  0  0  0  0  0  0  0  0  0
   13.2583   -2.9950    0.0000 C   0  0  0  0  0  0  0  0  0  0  0  0
   13.2583   -0.9950    0.0000 C   0  0  0  0  0  0  0  0  0  0  0  0
    6.3301   -3.9950    0.0000 C   0  0  0  0  0  0  0  0  0  0  0  0
    4.5981   -2.9950    0.0000 C   0  0  0  0  0  0  0  0  0  0  0  0
    7.1962    4.5050    0.0000 C   0  0  0  0  0  0  0  0  0  0  0  0
    5.4641    3.5050    0.0000 C   0  0  0  0  0  0  0  0  0  0  0  0
   14.1244   -1.4950    0.0000 C   0  0  0  0  0  0  0  0  0  0  0  0
    5.4641   -2.4950    0.0000 C   0  0  0  0  0  0  0  0  0  0  0  0
    6.3301   -2.9950    0.0000 C   0  0  0  0  0  0  0  0  0  0  0  0
   14.1244   -2.4950    0.0000 C   0  0  0  0  0  0  0  0  0  0  0  0
    6.3301    5.0050    0.0000 C   0  0  0  0  0  0  0  0  0  0  0  0
    5.4641    4.5050    0.0000 C   0  0  0  0  0  0  0  0  0  0  0  0
   12.3923   -1.4950    0.0000 C   0  0  0  0  0  0  0  0  0  0  0  0
    4.5903   -4.0017    0.0000 C   0  0  0  0  0  0  0  0  0  0  0  0
    5.4622   -4.5050    0.0000 C   0  0  0  0  0  0  0  0  0  0  0  0
   12.3923   -2.4950    0.0000 C   0  0  0  0  0  0  0  0  0  0  0  0
    7.2039    3.4983    0.0000 C   0  0  0  0  0  0  0  0  0  0  0  0
    6.3321    2.9950    0.0000 C   0  0  0  0  0  0  0  0  0  0  0  0
   11.1984   -4.8029    0.0000 H   0  0  0  0  0  0  0  0  0  0  0  0
    8.9258   -6.1150    0.0000 H   0  0  0  0  0  0  0  0  0  0  0  0
   12.0644    2.3130    0.0000 H   0  0  0  0  0  0  0  0  0  0  0  0
   10.3324    2.6971    0.0000 H   0  0  0  0  0  0  0  0  0  0  0  0
    3.4018   -0.3070    0.0000 H   0  0  0  0  0  0  0  0  0  0  0  0
    3.4018    2.3171    0.0000 H   0  0  0  0  0  0  0  0  0  0  0  0
    8.3176   -4.6026    0.0000 H   0  0  0  0  0  0  0  0  0  0  0  0
    8.7162   -3.9124    0.0000 H   0  0  0  0  0  0  0  0  0  0  0  0
   10.1935   -6.4810    0.0000 H   0  0  0  0  0  0  0  0  0  0  0  0
    9.3952   -6.4779    0.0000 H   0  0  0  0  0  0  0  0  0  0  0  0
   10.1928   -3.5200    0.0000 H   0  0  0  0  0  0  0  0  0  0  0  0
    9.3957   -3.5200    0.0000 H   0  0  0  0  0  0  0  0  0  0  0  0
   10.8816   -6.0837    0.0000 H   0  0  0  0  0  0  0  0  0  0  0  0
   11.2780   -5.3909    0.0000 H   0  0  0  0  0  0  0  0  0  0  0  0
    9.5822    1.4224    0.0000 H   0  0  0  0  0  0  0  0  0  0  0  0
    9.1837    2.1127    0.0000 H   0  0  0  0  0  0  0  0  0  0  0  0
   10.2612    3.9880    0.0000 H   0  0  0  0  0  0  0  0  0  0  0  0
   11.0595    3.9911    0.0000 H   0  0  0  0  0  0  0  0  0  0  0  0
   10.2617    1.0301    0.0000 H   0  0  0  0  0  0  0  0  0  0  0  0
   11.0588    1.0301    0.0000 H   0  0  0  0  0  0  0  0  0  0  0  0
   12.1441    2.9009    0.0000 H   0  0  0  0  0  0  0  0  0  0  0  0
   11.7476    3.5938    0.0000 H   0  0  0  0  0  0  0  0  0  0  0  0
    1.3894    1.3974    0.0000 H   0  0  0  0  0  0  0  0  0  0  0  0
    1.7880    2.0877    0.0000 H   0  0  0  0  0  0  0  0  0  0  0  0
    3.9508    2.0921    0.0000 H   0  0  0  0  0  0  0  0  0  0  0  0
    4.3526    1.4023    0.0000 H   0  0  0  0  0  0  0  0  0  0  0  0
    1.3894    0.6127    0.0000 H   0  0  0  0  0  0  0  0  0  0  0  0
    1.7880   -0.0776    0.0000 H   0  0  0  0  0  0  0  0  0  0  0  0
    3.9508   -0.0820    0.0000 H   0  0  0  0  0  0  0  0  0  0  0  0
    4.3526    0.6078    0.0000 H   0  0  0  0  0  0  0  0  0  0  0  0
   11.9248   -3.5200    0.0000 H   0  0  0  0  0  0  0  0  0  0  0  0
   11.1278   -3.5200    0.0000 H   0  0  0  0  0  0  0  0  0  0  0  0
    7.6637   -6.4699    0.0000 H   0  0  0  0  0  0  0  0  0  0  0  0
    8.4607   -6.4699    0.0000 H   0  0  0  0  0  0  0  0  0  0  0  0
   13.0029    1.3974    0.0000 H   0  0  0  0  0  0  0  0  0  0  0  0
   12.6044    2.0877    0.0000 H   0  0  0  0  0  0  0  0  0  0  0  0
    8.3176    3.6127    0.0000 H   0  0  0  0  0  0  0  0  0  0  0  0
    8.7162    2.9224    0.0000 H   0  0  0  0  0  0  0  0  0  0  0  0
    2.2554   -0.8873    0.0000 H   0  0  0  0  0  0  0  0  0  0  0  0
    2.6540   -1.5776    0.0000 H   0  0  0  0  0  0  0  0  0  0  0  0
    2.6540    3.5877    0.0000 H   0  0  0  0  0  0  0  0  0  0  0  0
    2.2554    2.8974    0.0000 H   0  0  0  0  0  0  0  0  0  0  0  0
   14.6613   -1.1850    0.0000 H   0  0  0  0  0  0  0  0  0  0  0  0
    5.4641   -1.8750    0.0000 H   0  0  0  0  0  0  0  0  0  0  0  0
    6.8671   -2.6850    0.0000 H   0  0  0  0  0  0  0  0  0  0  0  0
   14.6613   -2.8050    0.0000 H   0  0  0  0  0  0  0  0  0  0  0  0
    6.3301    5.6250    0.0000 H   0  0  0  0  0  0  0  0  0  0  0  0
    4.9272    4.8150    0.0000 H   0  0  0  0  0  0  0  0  0  0  0  0
   11.8554   -1.1850    0.0000 H   0  0  0  0  0  0  0  0  0  0  0  0
    4.0522   -4.3096    0.0000 H   0  0  0  0  0  0  0  0  0  0  0  0
    5.4646   -5.1250    0.0000 H   0  0  0  0  0  0  0  0  0  0  0  0
   11.8554   -2.8050    0.0000 H   0  0  0  0  0  0  0  0  0  0  0  0
    7.7420    3.1904    0.0000 H   0  0  0  0  0  0  0  0  0  0  0  0
    6.3297    2.3750    0.0000 H   0  0  0  0  0  0  0  0  0  0  0  0
  1 31  1  0  0  0  0
  1 37  1  0  0  0  0
  2 32  1  0  0  0  0
  2 39  1  0  0  0  0
  3 33  1  0  0  0  0
  3 38  1  0  0  0  0
  4 35  1  0  0  0  0
  4 40  1  0  0  0  0
  5 34  1  0  0  0  0
  5 41  1  0  0  0  0
  6 36  1  0  0  0  0
  6 42  1  0  0  0  0
  7 37  2  0  0  0  0
  8 38  2  0  0  0  0
  9 39  2  0  0  0  0
 10 40  2  0  0  0  0
 11 41  2  0  0  0  0
 12 42  2  0  0  0  0
 13 20  1  0  0  0  0
 13 22  1  0  0  0  0
 13 31  1  0  0  0  0
 13 61  1  0  0  0  0
 14 19  1  0  0  0  0
 14 21  1  0  0  0  0
 14 32  1  0  0  0  0
 14 62  1  0  0  0  0
 15 24  1  0  0  0  0
 15 26  1  0  0  0  0
 15 33  1  0  0  0  0
 15 63  1  0  0  0  0
 16 23  1  0  0  0  0
 16 25  1  0  0  0  0
 16 34  1  0  0  0  0
 16 64  1  0  0  0  0
 17 28  1  0  0  0  0
 17 30  1  0  0  0  0
 17 35  1  0  0  0  0
 17 65  1  0  0  0  0
 18 27  1  0  0  0  0
 18 29  1  0  0  0  0
 18 36  1  0  0  0  0
 18 66  1  0  0  0  0
 19 20  1  0  0  0  0
 19 67  1  0  0  0  0
 19 68  1  0  0  0  0
 20 71  1  0  0  0  0
 20 72  1  0  0  0  0
 21 22  1  0  0  0  0
 21 69  1  0  0  0  0
 21 70  1  0  0  0  0
 22 73  1  0  0  0  0
 22 74  1  0  0  0  0
 23 24  1  0  0  0  0
 23 75  1  0  0  0  0
 23 76  1  0  0  0  0
 24 79  1  0  0  0  0
 24 80  1  0  0  0  0
 25 26  1  0  0  0  0
 25 77  1  0  0  0  0
 25 78  1  0  0  0  0
 26 81  1  0  0  0  0
 26 82  1  0  0  0  0
 27 28  1  0  0  0  0
 27 83  1  0  0  0  0
 27 84  1  0  0  0  0
 28 87  1  0  0  0  0
 28 88  1  0  0  0  0
 29 30  1  0  0  0  0
 29 85  1  0  0  0  0
 29 86  1  0  0  0  0
 30 89  1  0  0  0  0
 30 90  1  0  0  0  0
 31 91  1  0  0  0  0
 31 92  1  0  0  0  0
 32 93  1  0  0  0  0
 32 94  1  0  0  0  0
 33 95  1  0  0  0  0
 33 96  1  0  0  0  0
 34 97  1  0  0  0  0
 34 98  1  0  0  0  0
 35 99  1  0  0  0  0
 35100  1  0  0  0  0
 36101  1  0  0  0  0
 36102  1  0  0  0  0
 37 43  1  0  0  0  0
 38 44  1  0  0  0  0
 39 45  1  0  0  0  0
 40 46  1  0  0  0  0
 41 47  1  0  0  0  0
 42 48  1  0  0  0  0
 43 52  2  0  0  0  0
 43 58  1  0  0  0  0
 44 49  2  0  0  0  0
 44 55  1  0  0  0  0
 45 51  2  0  0  0  0
 45 57  1  0  0  0  0
 46 50  2  0  0  0  0
 46 56  1  0  0  0  0
 47 53  2  0  0  0  0
 47 59  1  0  0  0  0
 48 54  2  0  0  0  0
 48 60  1  0  0  0  0
 49 52  1  0  0  0  0
 49103  1  0  0  0  0
 50 51  1  0  0  0  0
 50104  1  0  0  0  0
 51105  1  0  0  0  0
 52106  1  0  0  0  0
 53 54  1  0  0  0  0
 53107  1  0  0  0  0
 54108  1  0  0  0  0
 55 58  2  0  0  0  0
 55109  1  0  0  0  0
 56 57  2  0  0  0  0
 56110  1  0  0  0  0
 57111  1  0  0  0  0
 58112  1  0  0  0  0
 59 60  2  0  0  0  0
 59113  1  0  0  0  0
 60114  1  0  0  0  0
M  END
> <PUBCHEM_COMPOUND_CID>
177843058

> <PUBCHEM_COMPOUND_CANONICALIZED>
1

> <PUBCHEM_CACTVS_COMPLEXITY>
1150

> <PUBCHEM_CACTVS_HBOND_ACCEPTOR>
12

> <PUBCHEM_CACTVS_HBOND_DONOR>
0

> <PUBCHEM_CACTVS_ROTATABLE_BOND>
0

> <PUBCHEM_CACTVS_SUBSKEYS>
AAADcfB8PAAAAAAAAAAAAAAAAAAAAAAAAAAwYMGDAAAAAAABUAAAGgAAAAAADQCgmAIwCIAABACIAiDSCAACAAAkAAAIiAEACMgIJjKANRiCMQAkwAEIqYeIyDCOQAAAAAAAAACAAAAAAAAAAAAAAAAAAA==

> <PUBCHEM_IUPAC_OPENEYE_NAME>
3,10,17,24,31,38-hexaoxaheptacyclo[38.2.2.25,8.212,15.219,22.226,29.233,36]tetrapentaconta-1(43),12,14,26(48),27,29(47),40(44),41,51-nonaene-2,11,16,25,30,39-hexone

> <PUBCHEM_IUPAC_CAS_NAME>
3,10,17,24,31,38-hexaoxaheptacyclo[38.2.2.25,8.212,15.219,22.226,29.233,36]tetrapentaconta-1(43),12,14,26(48),27,29(47),40(44),41,51-nonaene-2,11,16,25,30,39-hexone

> <PUBCHEM_IUPAC_NAME_MARKUP>
3,10,17,24,31,38-hexaoxaheptacyclo[38.2.2.2<SUP>5,8</SUP>.2<SUP>12,15</SUP>.2<SUP>19,22</SUP>.2<SUP>26,29</SUP>.2<SUP>33,36</SUP>]tetrapentaconta-1(43),12,14,26(48),27,29(47),40(44),41,51-nonaene-2,11,16,25,30,39-hexone

> <PUBCHEM_IUPAC_NAME>
3,10,17,24,31,38-hexaoxaheptacyclo[38.2.2.25,8.212,15.219,22.226,29.233,36]tetrapentaconta-1(43),12,14,26(48),27,29(47),40(44),41,51-nonaene-2,11,16,25,30,39-hexone

> <PUBCHEM_IUPAC_SYSTEMATIC_NAME>
3,10,17,24,31,38-hexaoxaheptacyclo[38.2.2.25,8.212,15.219,22.226,29.233,36]tetrapentaconta-1(43),12,14,26(48),27,29(47),40(44),41,51-nonaene-2,11,16,25,30,39-hexone

> <PUBCHEM_IUPAC_TRADITIONAL_NAME>
3,10,17,24,31,38-hexaoxaheptacyclo[38.2.2.25,8.212,15.219,22.226,29.233,36]tetrapentaconta-1(43),12,14,26(48),27,29(47),40(44),41,51-nonaene-2,11,16,25,30,39-triquinone

> <PUBCHEM_IUPAC_INCHI>
InChI=1S/C48H54O12/c49-43-37-13-15-39(16-14-37)45(51)57-27-33-5-7-35(8-6-33)29-59-47(53)41-21-23-42(24-22-41)48(54)60-30-36-11-9-34(10-12-36)28-58-46(52)40-19-17-38(18-20-40)44(50)56-26-32-2-1-31(3-4-32)25-55-43/h13-24,31-36H,1-12,25-30H2

> <PUBCHEM_IUPAC_INCHIKEY>
IEXIWATZWDRYQW-UHFFFAOYSA-N

> <PUBCHEM_XLOGP3_AA>
9.4

> <PUBCHEM_EXACT_MASS>
822.36152715

> <PUBCHEM_MOLECULAR_FORMULA>
C48H54O12

> <PUBCHEM_MOLECULAR_WEIGHT>
822.9

> <PUBCHEM_SMILES>
C1CC2CCC1COC(=O)C3=CC=C(C=C3)C(=O)OCC4CCC(CC4)COC(=O)C5=CC=C(C=C5)C(=O)OCC6CCC(CC6)COC(=O)C7=CC=C(C=C7)C(=O)OC2

> <PUBCHEM_CONNECTIVITY_SMILES>
C1CC2CCC1COC(=O)C3=CC=C(C=C3)C(=O)OCC4CCC(CC4)COC(=O)C5=CC=C(C=C5)C(=O)OCC6CCC(CC6)COC(=O)C7=CC=C(C=C7)C(=O)OC2

> <PUBCHEM_CACTVS_TPSA>
158

> <PUBCHEM_MONOISOTOPIC_WEIGHT>
822.36152715

> <PUBCHEM_TOTAL_CHARGE>
0

> <PUBCHEM_HEAVY_ATOM_COUNT>
60

> <PUBCHEM_ATOM_DEF_STEREO_COUNT>
0

> <PUBCHEM_ATOM_UDEF_STEREO_COUNT>
0

> <PUBCHEM_BOND_DEF_STEREO_COUNT>
0

> <PUBCHEM_BOND_UDEF_STEREO_COUNT>
0

> <PUBCHEM_ISOTOPIC_ATOM_COUNT>
0

> <PUBCHEM_COMPONENT_COUNT>
1

> <PUBCHEM_CACTVS_TAUTO_COUNT>
-1

> <PUBCHEM_COORDINATE_TYPE>
1
5
255

> <PUBCHEM_BONDANNOTATIONS>
43  52  8
43  58  8
44  49  8
44  55  8
45  51  8
45  57  8
46  50  8
46  56  8
47  53  8
47  59  8
48  54  8
48  60  8
49  52  8
50  51  8
53  54  8
55  58  8
56  57  8
59  60  8

$$$$
