177843025
  -OEChem-05122609152D

 36 38  0     1  0  0  0  0  0999 V2000
    3.8000    0.2327    0.0000 C   0  0  2  0  0  0  0  0  0  0  0  0
    3.8000   -0.7673    0.0000 C   0  0  1  0  0  0  0  0  0  0  0  0
    2.9061    0.7673    0.0000 C   0  0  0  0  0  0  0  0  0  0  0  0
    4.6660   -1.2673    0.0000 C   0  0  0  0  0  0  0  0  0  0  0  0
    4.6660    0.7327    0.0000 C   0  0  0  0  0  0  0  0  0  0  0  0
    2.9061   -1.3020    0.0000 C   0  0  0  0  0  0  0  0  0  0  0  0
    2.0000    0.2535    0.0000 C   0  0  0  0  0  0  0  0  0  0  0  0
    2.0000   -0.7881    0.0000 C   0  0  0  0  0  0  0  0  0  0  0  0
    5.5321   -0.7673    0.0000 C   0  0  0  0  0  0  0  0  0  0  0  0
    3.8000    1.2327    0.0000 C   0  0  0  0  0  0  0  0  0  0  0  0
    5.5321    0.2327    0.0000 C   0  0  0  0  0  0  0  0  0  0  0  0
    4.6500    1.7742    0.0000 C   0  0  0  0  0  0  0  0  0  0  0  0
    6.4421    0.7395    0.0000 C   0  0  0  0  0  0  0  0  0  0  0  0
    2.9176   -2.3019    0.0000 C   0  0  0  0  0  0  0  0  0  0  0  0
    5.5480    2.3019    0.0000 C   0  0  0  0  0  0  0  0  0  0  0  0
    6.4501    1.7811    0.0000 C   0  0  0  0  0  0  0  0  0  0  0  0
    3.8066   -1.6173    0.0000 H   0  0  0  0  0  0  0  0  0  0  0  0
    3.3107    1.2371    0.0000 H   0  0  0  0  0  0  0  0  0  0  0  0
    2.5124    1.2464    0.0000 H   0  0  0  0  0  0  0  0  0  0  0  0
    4.2675   -1.7423    0.0000 H   0  0  0  0  0  0  0  0  0  0  0  0
    5.0646   -1.7423    0.0000 H   0  0  0  0  0  0  0  0  0  0  0  0
    1.7909    0.8372    0.0000 H   0  0  0  0  0  0  0  0  0  0  0  0
    1.3891    0.1474    0.0000 H   0  0  0  0  0  0  0  0  0  0  0  0
    1.3891   -0.6821    0.0000 H   0  0  0  0  0  0  0  0  0  0  0  0
    1.7909   -1.3718    0.0000 H   0  0  0  0  0  0  0  0  0  0  0  0
    5.7441   -1.3499    0.0000 H   0  0  0  0  0  0  0  0  0  0  0  0
    6.1426   -0.6597    0.0000 H   0  0  0  0  0  0  0  0  0  0  0  0
    4.4200    1.2327    0.0000 H   0  0  0  0  0  0  0  0  0  0  0  0
    3.8000    1.8527    0.0000 H   0  0  0  0  0  0  0  0  0  0  0  0
    3.1800    1.2327    0.0000 H   0  0  0  0  0  0  0  0  0  0  0  0
    4.1095    2.0779    0.0000 H   0  0  0  0  0  0  0  0  0  0  0  0
    6.9754    0.4233    0.0000 H   0  0  0  0  0  0  0  0  0  0  0  0
    2.3843   -2.6181    0.0000 H   0  0  0  0  0  0  0  0  0  0  0  0
    3.4581   -2.6057    0.0000 H   0  0  0  0  0  0  0  0  0  0  0  0
    5.5456    2.9219    0.0000 H   0  0  0  0  0  0  0  0  0  0  0  0
    6.9882    2.0890    0.0000 H   0  0  0  0  0  0  0  0  0  0  0  0
  1  2  1  0  0  0  0
  1  3  1  0  0  0  0
  1  5  1  0  0  0  0
  1 10  1  1  0  0  0
  2  4  1  0  0  0  0
  2  6  1  0  0  0  0
  2 17  1  6  0  0  0
  3  7  1  0  0  0  0
  3 18  1  0  0  0  0
  3 19  1  0  0  0  0
  4  9  1  0  0  0  0
  4 20  1  0  0  0  0
  4 21  1  0  0  0  0
  5 11  1  0  0  0  0
  5 12  2  0  0  0  0
  6  8  1  0  0  0  0
  6 14  2  0  0  0  0
  7  8  1  0  0  0  0
  7 22  1  0  0  0  0
  7 23  1  0  0  0  0
  8 24  1  0  0  0  0
  8 25  1  0  0  0  0
  9 11  1  0  0  0  0
  9 26  1  0  0  0  0
  9 27  1  0  0  0  0
 10 28  1  0  0  0  0
 10 29  1  0  0  0  0
 10 30  1  0  0  0  0
 11 13  2  0  0  0  0
 12 15  1  0  0  0  0
 12 31  1  0  0  0  0
 13 16  1  0  0  0  0
 13 32  1  0  0  0  0
 14 33  1  0  0  0  0
 14 34  1  0  0  0  0
 15 16  2  0  0  0  0
 15 35  1  0  0  0  0
 16 36  1  0  0  0  0
M  END
> <PUBCHEM_COMPOUND_CID>
177843025

> <PUBCHEM_COMPOUND_CANONICALIZED>
1

> <PUBCHEM_CACTVS_COMPLEXITY>
290

> <PUBCHEM_CACTVS_HBOND_ACCEPTOR>
0

> <PUBCHEM_CACTVS_HBOND_DONOR>
0

> <PUBCHEM_CACTVS_ROTATABLE_BOND>
0

> <PUBCHEM_CACTVS_SUBSKEYS>
AAADceB4AAAAAAAAAAAAAAAAAAAAAAAAAAAwYMAAAAAAAADBAAAAGAAAAAAADwCAGAAyAIAAAACAAiBCAAACAAAgAAAIiAAAAIgIICKAERCAIAAggAAIiAcAgMAPgAAAAAAQAACAAAQAACAAAAAAAAAAAA==

> <PUBCHEM_IUPAC_OPENEYE_NAME>
(4aS,10aS)-4a-methyl-1-methylene-2,3,4,9,10,10a-hexahydrophenanthrene

> <PUBCHEM_IUPAC_CAS_NAME>
(4aS,10aS)-4a-methyl-1-methylene-2,3,4,9,10,10a-hexahydrophenanthrene

> <PUBCHEM_IUPAC_NAME_MARKUP>
(4<I>a</I><I>S</I>,10<I>a</I><I>S</I>)-4<I>a</I>-methyl-1-methylidene-2,3,4,9,10,10<I>a</I>-hexahydrophenanthrene

> <PUBCHEM_IUPAC_NAME>
(4aS,10aS)-4a-methyl-1-methylidene-2,3,4,9,10,10a-hexahydrophenanthrene

> <PUBCHEM_IUPAC_SYSTEMATIC_NAME>
(4aS,10aS)-4a-methyl-1-methylidene-2,3,4,9,10,10a-hexahydrophenanthrene

> <PUBCHEM_IUPAC_TRADITIONAL_NAME>
(4aS,10aS)-4a-methyl-1-methylene-2,3,4,9,10,10a-hexahydrophenanthrene

> <PUBCHEM_IUPAC_INCHI>
InChI=1S/C16H20/c1-12-6-5-11-16(2)14(12)10-9-13-7-3-4-8-15(13)16/h3-4,7-8,14H,1,5-6,9-11H2,2H3/t14-,16-/m0/s1

> <PUBCHEM_IUPAC_INCHIKEY>
YRVHOFSHGNTBDW-HOCLYGCPSA-N

> <PUBCHEM_XLOGP3_AA>
4.7

> <PUBCHEM_EXACT_MASS>
212.156500638

> <PUBCHEM_MOLECULAR_FORMULA>
C16H20

> <PUBCHEM_MOLECULAR_WEIGHT>
212.33

> <PUBCHEM_SMILES>
C[C@]12CCCC(=C)[C@@H]1CCC3=CC=CC=C23

> <PUBCHEM_CONNECTIVITY_SMILES>
CC12CCCC(=C)C1CCC3=CC=CC=C23

> <PUBCHEM_CACTVS_TPSA>
0

> <PUBCHEM_MONOISOTOPIC_WEIGHT>
212.156500638

> <PUBCHEM_TOTAL_CHARGE>
0

> <PUBCHEM_HEAVY_ATOM_COUNT>
16

> <PUBCHEM_ATOM_DEF_STEREO_COUNT>
2

> <PUBCHEM_ATOM_UDEF_STEREO_COUNT>
0

> <PUBCHEM_BOND_DEF_STEREO_COUNT>
0

> <PUBCHEM_BOND_UDEF_STEREO_COUNT>
0

> <PUBCHEM_ISOTOPIC_ATOM_COUNT>
0

> <PUBCHEM_COMPONENT_COUNT>
1

> <PUBCHEM_CACTVS_TAUTO_COUNT>
-1

> <PUBCHEM_COORDINATE_TYPE>
1
5
255

> <PUBCHEM_BONDANNOTATIONS>
1  10  5
11  13  8
12  15  8
13  16  8
15  16  8
2  17  6
5  11  8
5  12  8

$$$$
