177842987
  -OEChem-05122609522D

 81 81  0     1  0  0  0  0  0999 V2000
    8.7710    3.9936    0.0000 O   0  0  0  0  0  0  0  0  0  0  0  0
   11.0278    2.0999    0.0000 O   0  0  0  0  0  0  0  0  0  0  0  0
    5.8249    3.9936    0.0000 O   0  0  0  0  0  0  0  0  0  0  0  0
   11.5394   -0.8015    0.0000 O   0  0  0  0  0  0  0  0  0  0  0  0
    3.5680    2.0999    0.0000 O   0  0  0  0  0  0  0  0  0  0  0  0
   10.0663   -3.3529    0.0000 O   0  0  0  0  0  0  0  0  0  0  0  0
    3.0565   -0.8015    0.0000 O   0  0  0  0  0  0  0  0  0  0  0  0
    7.2979   -4.3605    0.0000 O   0  0  0  0  0  0  0  0  0  0  0  0
    4.5295   -3.3529    0.0000 O   0  0  0  0  0  0  0  0  0  0  0  0
    7.9140    5.2174    0.0000 O   0  0  0  0  0  0  0  0  0  0  0  0
   11.1580    3.5882    0.0000 O   0  0  0  0  0  0  0  0  0  0  0  0
    4.3817    4.3803    0.0000 O   0  0  0  0  0  0  0  0  0  0  0  0
   12.5958    0.2550    0.0000 O   0  0  0  0  0  0  0  0  0  0  0  0
    2.2140    1.4685    0.0000 O   0  0  0  0  0  0  0  0  0  0  0  0
   11.5547   -3.2226    0.0000 O   0  0  0  0  0  0  0  0  0  0  0  0
    2.4250   -2.1555    0.0000 O   0  0  0  0  0  0  0  0  0  0  0  0
    8.5218   -5.2174    0.0000 O   0  0  0  0  0  0  0  0  0  0  0  0
    4.9162   -4.7960    0.0000 O   0  0  0  0  0  0  0  0  0  0  0  0
    9.6646    3.5448    0.0000 C   0  0  3  0  0  0  0  0  0  0  0  0
   11.4239    1.1817    0.0000 C   0  0  3  0  0  0  0  0  0  0  0  0
    6.7979    4.2242    0.0000 C   0  0  3  0  0  0  0  0  0  0  0  0
   11.2526   -1.7595    0.0000 C   0  0  3  0  0  0  0  0  0  0  0  0
    4.1652    2.9020    0.0000 C   0  0  3  0  0  0  0  0  0  0  0  0
    9.2309   -3.9024    0.0000 C   0  0  3  0  0  0  0  0  0  0  0  0
    2.9983    0.1968    0.0000 C   0  0  3  0  0  0  0  0  0  0  0  0
    6.3047   -4.2444    0.0000 C   0  0  3  0  0  0  0  0  0  0  0  0
    3.8433   -2.6255    0.0000 C   0  0  3  0  0  0  0  0  0  0  0  0
    4.9312    3.5448    0.0000 C   0  0  0  0  0  0  0  0  0  0  0  0
   10.4306    2.9020    0.0000 C   0  0  0  0  0  0  0  0  0  0  0  0
   11.5975    0.1968    0.0000 C   0  0  0  0  0  0  0  0  0  0  0  0
    3.3433   -1.7595    0.0000 C   0  0  0  0  0  0  0  0  0  0  0  0
   10.7526   -2.6255    0.0000 C   0  0  0  0  0  0  0  0  0  0  0  0
    8.2912   -4.2444    0.0000 C   0  0  0  0  0  0  0  0  0  0  0  0
    5.3650   -3.9024    0.0000 C   0  0  0  0  0  0  0  0  0  0  0  0
    3.1720    1.1817    0.0000 C   0  0  0  0  0  0  0  0  0  0  0  0
    7.7979    4.2242    0.0000 C   0  0  0  0  0  0  0  0  0  0  0  0
   10.2141    4.3803    0.0000 C   0  0  0  0  0  0  0  0  0  0  0  0
   12.3819    1.4685    0.0000 C   0  0  0  0  0  0  0  0  0  0  0  0
    6.6818    5.2174    0.0000 C   0  0  0  0  0  0  0  0  0  0  0  0
   12.1708   -2.1555    0.0000 C   0  0  0  0  0  0  0  0  0  0  0  0
    3.4378    3.5882    0.0000 C   0  0  0  0  0  0  0  0  0  0  0  0
    9.6797   -4.7960    0.0000 C   0  0  0  0  0  0  0  0  0  0  0  0
    2.0000    0.2550    0.0000 C   0  0  0  0  0  0  0  0  0  0  0  0
    6.0741   -5.2174    0.0000 C   0  0  0  0  0  0  0  0  0  0  0  0
    3.0411   -3.2226    0.0000 C   0  0  0  0  0  0  0  0  0  0  0  0
    9.5041    4.1437    0.0000 H   0  0  0  0  0  0  0  0  0  0  0  0
   11.6859    1.7436    0.0000 H   0  0  0  0  0  0  0  0  0  0  0  0
    6.2900    4.5798    0.0000 H   0  0  0  0  0  0  0  0  0  0  0  0
   11.8145   -1.4974    0.0000 H   0  0  0  0  0  0  0  0  0  0  0  0
    3.5476    2.8480    0.0000 H   0  0  0  0  0  0  0  0  0  0  0  0
    9.8297   -4.0628    0.0000 H   0  0  0  0  0  0  0  0  0  0  0  0
    2.5599   -0.2416    0.0000 H   0  0  0  0  0  0  0  0  0  0  0  0
    6.6603   -4.7523    0.0000 H   0  0  0  0  0  0  0  0  0  0  0  0
    3.7892   -3.2431    0.0000 H   0  0  0  0  0  0  0  0  0  0  0  0
   10.7321    4.0396    0.0000 H   0  0  0  0  0  0  0  0  0  0  0  0
   10.5548    4.8983    0.0000 H   0  0  0  0  0  0  0  0  0  0  0  0
    9.6961    4.7210    0.0000 H   0  0  0  0  0  0  0  0  0  0  0  0
   12.5597    0.8745    0.0000 H   0  0  0  0  0  0  0  0  0  0  0  0
   12.9758    1.6463    0.0000 H   0  0  0  0  0  0  0  0  0  0  0  0
   12.2040    2.0624    0.0000 H   0  0  0  0  0  0  0  0  0  0  0  0
    6.0660    5.1455    0.0000 H   0  0  0  0  0  0  0  0  0  0  0  0
    6.6099    5.8332    0.0000 H   0  0  0  0  0  0  0  0  0  0  0  0
    7.2976    5.2894    0.0000 H   0  0  0  0  0  0  0  0  0  0  0  0
   11.9252   -2.7248    0.0000 H   0  0  0  0  0  0  0  0  0  0  0  0
   12.7401   -2.4011    0.0000 H   0  0  0  0  0  0  0  0  0  0  0  0
   12.4164   -1.5862    0.0000 H   0  0  0  0  0  0  0  0  0  0  0  0
    3.0124    3.1373    0.0000 H   0  0  0  0  0  0  0  0  0  0  0  0
    2.9869    4.0137    0.0000 H   0  0  0  0  0  0  0  0  0  0  0  0
    3.8633    4.0392    0.0000 H   0  0  0  0  0  0  0  0  0  0  0  0
    9.1256   -5.0743    0.0000 H   0  0  0  0  0  0  0  0  0  0  0  0
    9.9579   -5.3501    0.0000 H   0  0  0  0  0  0  0  0  0  0  0  0
   10.2337   -4.5177    0.0000 H   0  0  0  0  0  0  0  0  0  0  0  0
    1.9640   -0.3640    0.0000 H   0  0  0  0  0  0  0  0  0  0  0  0
    1.3811    0.2910    0.0000 H   0  0  0  0  0  0  0  0  0  0  0  0
    2.0361    0.8739    0.0000 H   0  0  0  0  0  0  0  0  0  0  0  0
    5.4708   -5.0745    0.0000 H   0  0  0  0  0  0  0  0  0  0  0  0
    5.9311   -5.8207    0.0000 H   0  0  0  0  0  0  0  0  0  0  0  0
    6.6774   -5.3604    0.0000 H   0  0  0  0  0  0  0  0  0  0  0  0
    3.4114   -3.7200    0.0000 H   0  0  0  0  0  0  0  0  0  0  0  0
    2.5438   -3.5929    0.0000 H   0  0  0  0  0  0  0  0  0  0  0  0
    2.6709   -2.7253    0.0000 H   0  0  0  0  0  0  0  0  0  0  0  0
  1 19  1  0  0  0  0
  1 36  1  0  0  0  0
  2 20  1  0  0  0  0
  2 29  1  0  0  0  0
  3 21  1  0  0  0  0
  3 28  1  0  0  0  0
  4 22  1  0  0  0  0
  4 30  1  0  0  0  0
  5 23  1  0  0  0  0
  5 35  1  0  0  0  0
  6 24  1  0  0  0  0
  6 32  1  0  0  0  0
  7 25  1  0  0  0  0
  7 31  1  0  0  0  0
  8 26  1  0  0  0  0
  8 33  1  0  0  0  0
  9 27  1  0  0  0  0
  9 34  1  0  0  0  0
 10 36  2  0  0  0  0
 11 29  2  0  0  0  0
 12 28  2  0  0  0  0
 13 30  2  0  0  0  0
 14 35  2  0  0  0  0
 15 32  2  0  0  0  0
 16 31  2  0  0  0  0
 17 33  2  0  0  0  0
 18 34  2  0  0  0  0
 19 29  1  0  0  0  0
 19 37  1  0  0  0  0
 19 46  1  0  0  0  0
 20 30  1  0  0  0  0
 20 38  1  0  0  0  0
 20 47  1  0  0  0  0
 21 36  1  0  0  0  0
 21 39  1  0  0  0  0
 21 48  1  0  0  0  0
 22 32  1  0  0  0  0
 22 40  1  0  0  0  0
 22 49  1  0  0  0  0
 23 28  1  0  0  0  0
 23 41  1  0  0  0  0
 23 50  1  0  0  0  0
 24 33  1  0  0  0  0
 24 42  1  0  0  0  0
 24 51  1  0  0  0  0
 25 35  1  0  0  0  0
 25 43  1  0  0  0  0
 25 52  1  0  0  0  0
 26 34  1  0  0  0  0
 26 44  1  0  0  0  0
 26 53  1  0  0  0  0
 27 31  1  0  0  0  0
 27 45  1  0  0  0  0
 27 54  1  0  0  0  0
 37 55  1  0  0  0  0
 37 56  1  0  0  0  0
 37 57  1  0  0  0  0
 38 58  1  0  0  0  0
 38 59  1  0  0  0  0
 38 60  1  0  0  0  0
 39 61  1  0  0  0  0
 39 62  1  0  0  0  0
 39 63  1  0  0  0  0
 40 64  1  0  0  0  0
 40 65  1  0  0  0  0
 40 66  1  0  0  0  0
 41 67  1  0  0  0  0
 41 68  1  0  0  0  0
 41 69  1  0  0  0  0
 42 70  1  0  0  0  0
 42 71  1  0  0  0  0
 42 72  1  0  0  0  0
 43 73  1  0  0  0  0
 43 74  1  0  0  0  0
 43 75  1  0  0  0  0
 44 76  1  0  0  0  0
 44 77  1  0  0  0  0
 44 78  1  0  0  0  0
 45 79  1  0  0  0  0
 45 80  1  0  0  0  0
 45 81  1  0  0  0  0
M  END
> <PUBCHEM_COMPOUND_CID>
177842987

> <PUBCHEM_COMPOUND_CANONICALIZED>
1

> <PUBCHEM_CACTVS_COMPLEXITY>
891

> <PUBCHEM_CACTVS_HBOND_ACCEPTOR>
18

> <PUBCHEM_CACTVS_HBOND_DONOR>
0

> <PUBCHEM_CACTVS_ROTATABLE_BOND>
0

> <PUBCHEM_CACTVS_SUBSKEYS>
AAADcfB4PgAAAAAAAAAAAAAAAAAAAAAAAAAAAAAAAAAAAAAAAAAAGgAAAAAACBSggAICCAAABAAIAACQCAIAAAAAAAAAAAFAAAABAAAAAAQCAAAAAAACAAAAAAAAAAAAAAAAAAAAAAAAAAAAAAAAAAAAAA==

> <PUBCHEM_IUPAC_OPENEYE_NAME>
3,6,9,12,15,18,21,24,27-nonamethyl-1,4,7,10,13,16,19,22,25-nonaoxacycloheptacosane-2,5,8,11,14,17,20,23,26-nonone

> <PUBCHEM_IUPAC_CAS_NAME>
3,6,9,12,15,18,21,24,27-nonamethyl-1,4,7,10,13,16,19,22,25-nonaoxacycloheptacosane-2,5,8,11,14,17,20,23,26-nonone

> <PUBCHEM_IUPAC_NAME_MARKUP>
3,6,9,12,15,18,21,24,27-nonamethyl-1,4,7,10,13,16,19,22,25-nonaoxacycloheptacosane-2,5,8,11,14,17,20,23,26-nonone

> <PUBCHEM_IUPAC_NAME>
3,6,9,12,15,18,21,24,27-nonamethyl-1,4,7,10,13,16,19,22,25-nonaoxacycloheptacosane-2,5,8,11,14,17,20,23,26-nonone

> <PUBCHEM_IUPAC_SYSTEMATIC_NAME>
3,6,9,12,15,18,21,24,27-nonamethyl-1,4,7,10,13,16,19,22,25-nonaoxacycloheptacosane-2,5,8,11,14,17,20,23,26-nonone

> <PUBCHEM_IUPAC_TRADITIONAL_NAME>
3,6,9,12,15,18,21,24,27-nonamethyl-1,4,7,10,13,16,19,22,25-nonaoxacycloheptacosane-2,5,8,11,14,17,20,23,26-nonone

> <PUBCHEM_IUPAC_INCHI>
InChI=1S/C27H36O18/c1-10-19(28)38-12(3)21(30)40-14(5)23(32)42-16(7)25(34)44-18(9)27(36)45-17(8)26(35)43-15(6)24(33)41-13(4)22(31)39-11(2)20(29)37-10/h10-18H,1-9H3

> <PUBCHEM_IUPAC_INCHIKEY>
HUDKHJBZLMMETH-UHFFFAOYSA-N

> <PUBCHEM_XLOGP3_AA>
2.9

> <PUBCHEM_EXACT_MASS>
648.19016430

> <PUBCHEM_MOLECULAR_FORMULA>
C27H36O18

> <PUBCHEM_MOLECULAR_WEIGHT>
648.6

> <PUBCHEM_SMILES>
CC1C(=O)OC(C(=O)OC(C(=O)OC(C(=O)OC(C(=O)OC(C(=O)OC(C(=O)OC(C(=O)OC(C(=O)O1)C)C)C)C)C)C)C)C

> <PUBCHEM_CONNECTIVITY_SMILES>
CC1C(=O)OC(C(=O)OC(C(=O)OC(C(=O)OC(C(=O)OC(C(=O)OC(C(=O)OC(C(=O)OC(C(=O)O1)C)C)C)C)C)C)C)C

> <PUBCHEM_CACTVS_TPSA>
237

> <PUBCHEM_MONOISOTOPIC_WEIGHT>
648.19016430

> <PUBCHEM_TOTAL_CHARGE>
0

> <PUBCHEM_HEAVY_ATOM_COUNT>
45

> <PUBCHEM_ATOM_DEF_STEREO_COUNT>
0

> <PUBCHEM_ATOM_UDEF_STEREO_COUNT>
9

> <PUBCHEM_BOND_DEF_STEREO_COUNT>
0

> <PUBCHEM_BOND_UDEF_STEREO_COUNT>
0

> <PUBCHEM_ISOTOPIC_ATOM_COUNT>
0

> <PUBCHEM_COMPONENT_COUNT>
1

> <PUBCHEM_CACTVS_TAUTO_COUNT>
-1

> <PUBCHEM_COORDINATE_TYPE>
1
5
255

> <PUBCHEM_BONDANNOTATIONS>
19  37  3
20  38  3
21  39  3
22  40  3
23  41  3
24  42  3
25  43  3
26  44  3
27  45  3

$$$$
