17888
  -OEChem-05122608112D

 27 26  0     0  0  0  0  0  0999 V2000
    2.8660    0.9400    0.0000 O   0  0  0  0  0  0  0  0  0  0  0  0
    6.3301   -1.0600    0.0000 O   0  0  0  0  0  0  0  0  0  0  0  0
    5.4641    0.4400    0.0000 N   0  0  0  0  0  0  0  0  0  0  0  0
    4.5981   -0.0600    0.0000 C   0  0  0  0  0  0  0  0  0  0  0  0
    3.7321   -0.5600    0.0000 C   0  0  0  0  0  0  0  0  0  0  0  0
    4.0981    0.8060    0.0000 C   0  0  0  0  0  0  0  0  0  0  0  0
    5.0981   -0.9260    0.0000 C   0  0  0  0  0  0  0  0  0  0  0  0
    2.8660   -0.0600    0.0000 C   0  0  0  0  0  0  0  0  0  0  0  0
    6.3301   -0.0600    0.0000 C   0  0  0  0  0  0  0  0  0  0  0  0
    2.0000   -0.5600    0.0000 C   0  0  0  0  0  0  0  0  0  0  0  0
    7.1962    0.4400    0.0000 C   0  0  0  0  0  0  0  0  0  0  0  0
    8.0622   -0.0600    0.0000 C   0  0  0  0  0  0  0  0  0  0  0  0
    3.3335   -1.0350    0.0000 H   0  0  0  0  0  0  0  0  0  0  0  0
    4.1306   -1.0350    0.0000 H   0  0  0  0  0  0  0  0  0  0  0  0
    4.6350    1.1160    0.0000 H   0  0  0  0  0  0  0  0  0  0  0  0
    3.7881    1.3430    0.0000 H   0  0  0  0  0  0  0  0  0  0  0  0
    3.5611    0.4960    0.0000 H   0  0  0  0  0  0  0  0  0  0  0  0
    4.5611   -1.2360    0.0000 H   0  0  0  0  0  0  0  0  0  0  0  0
    5.4081   -1.4630    0.0000 H   0  0  0  0  0  0  0  0  0  0  0  0
    5.6350   -0.6160    0.0000 H   0  0  0  0  0  0  0  0  0  0  0  0
    5.4641    1.0600    0.0000 H   0  0  0  0  0  0  0  0  0  0  0  0
    1.6900   -0.0231    0.0000 H   0  0  0  0  0  0  0  0  0  0  0  0
    1.4631   -0.8700    0.0000 H   0  0  0  0  0  0  0  0  0  0  0  0
    2.3100   -1.0969    0.0000 H   0  0  0  0  0  0  0  0  0  0  0  0
    7.1962    1.0600    0.0000 H   0  0  0  0  0  0  0  0  0  0  0  0
    8.0622   -0.6800    0.0000 H   0  0  0  0  0  0  0  0  0  0  0  0
    8.5991    0.2500    0.0000 H   0  0  0  0  0  0  0  0  0  0  0  0
  1  8  2  0  0  0  0
  2  9  2  0  0  0  0
  3  4  1  0  0  0  0
  3  9  1  0  0  0  0
  3 21  1  0  0  0  0
  4  5  1  0  0  0  0
  4  6  1  0  0  0  0
  4  7  1  0  0  0  0
  5  8  1  0  0  0  0
  5 13  1  0  0  0  0
  5 14  1  0  0  0  0
  6 15  1  0  0  0  0
  6 16  1  0  0  0  0
  6 17  1  0  0  0  0
  7 18  1  0  0  0  0
  7 19  1  0  0  0  0
  7 20  1  0  0  0  0
  8 10  1  0  0  0  0
  9 11  1  0  0  0  0
 10 22  1  0  0  0  0
 10 23  1  0  0  0  0
 10 24  1  0  0  0  0
 11 12  2  0  0  0  0
 11 25  1  0  0  0  0
 12 26  1  0  0  0  0
 12 27  1  0  0  0  0
M  END
> <PUBCHEM_COMPOUND_CID>
17888

> <PUBCHEM_COMPOUND_CANONICALIZED>
1

> <PUBCHEM_CACTVS_COMPLEXITY>
207

> <PUBCHEM_CACTVS_HBOND_ACCEPTOR>
2

> <PUBCHEM_CACTVS_HBOND_DONOR>
1

> <PUBCHEM_CACTVS_ROTATABLE_BOND>
4

> <PUBCHEM_CACTVS_SUBSKEYS>
AAADccByMAAAAAAAAAAAAAAAAAAAAAAAAAAAAAAAAAAAAAAAAAAAHgAQAAAADIyBgAACAALAAACIAKFSEACAAAAAAAAIAAEAAEAAABoAgAAEAAAAFACAAIAAAAAMAAAAAAAAAAAAAAAAAAAAAAAAAAAAAA==

> <PUBCHEM_IUPAC_OPENEYE_NAME>
N-(1,1-dimethyl-3-oxo-butyl)prop-2-enamide

> <PUBCHEM_IUPAC_CAS_NAME>
N-(2-methyl-4-oxopentan-2-yl)-2-propenamide

> <PUBCHEM_IUPAC_NAME_MARKUP>
<I>N</I>-(2-methyl-4-oxopentan-2-yl)prop-2-enamide

> <PUBCHEM_IUPAC_NAME>
N-(2-methyl-4-oxopentan-2-yl)prop-2-enamide

> <PUBCHEM_IUPAC_SYSTEMATIC_NAME>
N-(2-methyl-4-oxidanylidene-pentan-2-yl)prop-2-enamide

> <PUBCHEM_IUPAC_TRADITIONAL_NAME>
N-(3-keto-1,1-dimethyl-butyl)acrylamide

> <PUBCHEM_IUPAC_INCHI>
InChI=1S/C9H15NO2/c1-5-8(12)10-9(3,4)6-7(2)11/h5H,1,6H2,2-4H3,(H,10,12)

> <PUBCHEM_IUPAC_INCHIKEY>
OMNKZBIFPJNNIO-UHFFFAOYSA-N

> <PUBCHEM_XLOGP3_AA>
0.4

> <PUBCHEM_EXACT_MASS>
169.110278721

> <PUBCHEM_MOLECULAR_FORMULA>
C9H15NO2

> <PUBCHEM_MOLECULAR_WEIGHT>
169.22

> <PUBCHEM_SMILES>
CC(=O)CC(C)(C)NC(=O)C=C

> <PUBCHEM_CONNECTIVITY_SMILES>
CC(=O)CC(C)(C)NC(=O)C=C

> <PUBCHEM_CACTVS_TPSA>
46.2

> <PUBCHEM_MONOISOTOPIC_WEIGHT>
169.110278721

> <PUBCHEM_TOTAL_CHARGE>
0

> <PUBCHEM_HEAVY_ATOM_COUNT>
12

> <PUBCHEM_ATOM_DEF_STEREO_COUNT>
0

> <PUBCHEM_ATOM_UDEF_STEREO_COUNT>
0

> <PUBCHEM_BOND_DEF_STEREO_COUNT>
0

> <PUBCHEM_BOND_UDEF_STEREO_COUNT>
0

> <PUBCHEM_ISOTOPIC_ATOM_COUNT>
0

> <PUBCHEM_COMPONENT_COUNT>
1

> <PUBCHEM_CACTVS_TAUTO_COUNT>
-1

> <PUBCHEM_COORDINATE_TYPE>
1
5
255

$$$$
