180508
  -OEChem-05122608542D

 43 42  0     0  0  0  0  0  0999 V2000
    3.8660   -0.0670    0.0000 As  0  0  0  0  0  0  0  0  0  0  0  0
    5.5981   -0.0670    0.0000 Si  0  0  0  0  0  0  0  0  0  0  0  0
    3.0000    1.4330    0.0000 Si  0  0  0  0  0  0  0  0  0  0  0  0
    3.0000   -1.5670    0.0000 Si  0  0  0  0  0  0  0  0  0  0  0  0
    4.7321    0.4330    0.0000 O   0  0  0  0  0  0  0  0  0  0  0  0
    3.0000    0.4330    0.0000 O   0  0  0  0  0  0  0  0  0  0  0  0
    3.8660   -1.0670    0.0000 O   0  0  0  0  0  0  0  0  0  0  0  0
    6.4641   -0.5670    0.0000 C   0  0  0  0  0  0  0  0  0  0  0  0
    6.0981    0.7990    0.0000 C   0  0  0  0  0  0  0  0  0  0  0  0
    5.0981   -0.9330    0.0000 C   0  0  0  0  0  0  0  0  0  0  0  0
    3.0000    2.4330    0.0000 C   0  0  0  0  0  0  0  0  0  0  0  0
    2.0000    1.4330    0.0000 C   0  0  0  0  0  0  0  0  0  0  0  0
    4.0000    1.4330    0.0000 C   0  0  0  0  0  0  0  0  0  0  0  0
    3.5000   -2.4330    0.0000 C   0  0  0  0  0  0  0  0  0  0  0  0
    2.1340   -2.0670    0.0000 C   0  0  0  0  0  0  0  0  0  0  0  0
    2.5000   -0.7010    0.0000 C   0  0  0  0  0  0  0  0  0  0  0  0
    6.1541   -1.1039    0.0000 H   0  0  0  0  0  0  0  0  0  0  0  0
    7.0010   -0.8770    0.0000 H   0  0  0  0  0  0  0  0  0  0  0  0
    6.7741   -0.0301    0.0000 H   0  0  0  0  0  0  0  0  0  0  0  0
    6.6350    0.4890    0.0000 H   0  0  0  0  0  0  0  0  0  0  0  0
    6.4081    1.3360    0.0000 H   0  0  0  0  0  0  0  0  0  0  0  0
    5.5611    1.1090    0.0000 H   0  0  0  0  0  0  0  0  0  0  0  0
    4.5611   -0.6230    0.0000 H   0  0  0  0  0  0  0  0  0  0  0  0
    4.7881   -1.4700    0.0000 H   0  0  0  0  0  0  0  0  0  0  0  0
    5.6350   -1.2430    0.0000 H   0  0  0  0  0  0  0  0  0  0  0  0
    3.6200    2.4330    0.0000 H   0  0  0  0  0  0  0  0  0  0  0  0
    3.0000    3.0530    0.0000 H   0  0  0  0  0  0  0  0  0  0  0  0
    2.3800    2.4330    0.0000 H   0  0  0  0  0  0  0  0  0  0  0  0
    2.0000    2.0530    0.0000 H   0  0  0  0  0  0  0  0  0  0  0  0
    1.3800    1.4330    0.0000 H   0  0  0  0  0  0  0  0  0  0  0  0
    2.0000    0.8130    0.0000 H   0  0  0  0  0  0  0  0  0  0  0  0
    4.0000    0.8130    0.0000 H   0  0  0  0  0  0  0  0  0  0  0  0
    4.6200    1.4330    0.0000 H   0  0  0  0  0  0  0  0  0  0  0  0
    4.0000    2.0530    0.0000 H   0  0  0  0  0  0  0  0  0  0  0  0
    2.9631   -2.7430    0.0000 H   0  0  0  0  0  0  0  0  0  0  0  0
    3.8100   -2.9700    0.0000 H   0  0  0  0  0  0  0  0  0  0  0  0
    4.0369   -2.1230    0.0000 H   0  0  0  0  0  0  0  0  0  0  0  0
    1.8240   -1.5301    0.0000 H   0  0  0  0  0  0  0  0  0  0  0  0
    1.5970   -2.3770    0.0000 H   0  0  0  0  0  0  0  0  0  0  0  0
    2.4440   -2.6039    0.0000 H   0  0  0  0  0  0  0  0  0  0  0  0
    3.0369   -0.3910    0.0000 H   0  0  0  0  0  0  0  0  0  0  0  0
    2.1900   -0.1640    0.0000 H   0  0  0  0  0  0  0  0  0  0  0  0
    1.9631   -1.0110    0.0000 H   0  0  0  0  0  0  0  0  0  0  0  0
  1  5  1  0  0  0  0
  1  6  1  0  0  0  0
  1  7  1  0  0  0  0
  2  5  1  0  0  0  0
  2  8  1  0  0  0  0
  2  9  1  0  0  0  0
  2 10  1  0  0  0  0
  3  6  1  0  0  0  0
  3 11  1  0  0  0  0
  3 12  1  0  0  0  0
  3 13  1  0  0  0  0
  4  7  1  0  0  0  0
  4 14  1  0  0  0  0
  4 15  1  0  0  0  0
  4 16  1  0  0  0  0
  8 17  1  0  0  0  0
  8 18  1  0  0  0  0
  8 19  1  0  0  0  0
  9 20  1  0  0  0  0
  9 21  1  0  0  0  0
  9 22  1  0  0  0  0
 10 23  1  0  0  0  0
 10 24  1  0  0  0  0
 10 25  1  0  0  0  0
 11 26  1  0  0  0  0
 11 27  1  0  0  0  0
 11 28  1  0  0  0  0
 12 29  1  0  0  0  0
 12 30  1  0  0  0  0
 12 31  1  0  0  0  0
 13 32  1  0  0  0  0
 13 33  1  0  0  0  0
 13 34  1  0  0  0  0
 14 35  1  0  0  0  0
 14 36  1  0  0  0  0
 14 37  1  0  0  0  0
 15 38  1  0  0  0  0
 15 39  1  0  0  0  0
 15 40  1  0  0  0  0
 16 41  1  0  0  0  0
 16 42  1  0  0  0  0
 16 43  1  0  0  0  0
M  END
> <PUBCHEM_COMPOUND_CID>
180508

> <PUBCHEM_COMPOUND_CANONICALIZED>
1

> <PUBCHEM_CACTVS_COMPLEXITY>
179

> <PUBCHEM_CACTVS_HBOND_ACCEPTOR>
3

> <PUBCHEM_CACTVS_HBOND_DONOR>
0

> <PUBCHEM_CACTVS_ROTATABLE_BOND>
6

> <PUBCHEM_CACTVS_SUBSKEYS>
AAADceBwMAwAAAAAQAAAAAAAAAAAAAAAAAAAAAAAAAAAAAAAAAAAEBAAAEAAAAAAAABCAAAAAAEAAAAAAAAAAAAAAAAAAAAAAAAAAAAAAAAAAAAAAAAAAAAAAAAAAAAAAAAAAAAAAAAAAAAAAAAAAAAAAA==

> <PUBCHEM_IUPAC_OPENEYE_NAME>
tris(trimethylsilyl) arsorite

> <PUBCHEM_IUPAC_CAS_NAME>
tris(trimethylsilyl) arsorite

> <PUBCHEM_IUPAC_NAME_MARKUP>
tris(trimethylsilyl) arsorite

> <PUBCHEM_IUPAC_NAME>
tris(trimethylsilyl) arsorite

> <PUBCHEM_IUPAC_SYSTEMATIC_NAME>
tris(trimethylsilyl) arsorite

> <PUBCHEM_IUPAC_TRADITIONAL_NAME>
tris(trimethylsilyl) arsorite

> <PUBCHEM_IUPAC_INCHI>
InChI=1S/C9H27AsO3Si3/c1-14(2,3)11-10(12-15(4,5)6)13-16(7,8)9/h1-9H3

> <PUBCHEM_IUPAC_INCHIKEY>
CWZNQWMMDOIFQC-UHFFFAOYSA-N

> <PUBCHEM_EXACT_MASS>
342.048394

> <PUBCHEM_MOLECULAR_FORMULA>
C9H27AsO3Si3

> <PUBCHEM_MOLECULAR_WEIGHT>
342.49

> <PUBCHEM_SMILES>
C[Si](C)(C)O[As](O[Si](C)(C)C)O[Si](C)(C)C

> <PUBCHEM_CONNECTIVITY_SMILES>
C[Si](C)(C)O[As](O[Si](C)(C)C)O[Si](C)(C)C

> <PUBCHEM_CACTVS_TPSA>
27.7

> <PUBCHEM_MONOISOTOPIC_WEIGHT>
342.048394

> <PUBCHEM_TOTAL_CHARGE>
0

> <PUBCHEM_HEAVY_ATOM_COUNT>
16

> <PUBCHEM_ATOM_DEF_STEREO_COUNT>
0

> <PUBCHEM_ATOM_UDEF_STEREO_COUNT>
0

> <PUBCHEM_BOND_DEF_STEREO_COUNT>
0

> <PUBCHEM_BOND_UDEF_STEREO_COUNT>
0

> <PUBCHEM_ISOTOPIC_ATOM_COUNT>
0

> <PUBCHEM_COMPONENT_COUNT>
1

> <PUBCHEM_CACTVS_TAUTO_COUNT>
-1

> <PUBCHEM_COORDINATE_TYPE>
1
5
255

$$$$
