18134
  -OEChem-05122608282D

 43 42  0     1  0  0  0  0  0999 V2000
    9.7942    1.4330    0.0000 S   0  0  0  0  0  0  0  0  0  0  0  0
    6.6962    0.7990    0.0000 F   0  0  0  0  0  0  0  0  0  0  0  0
    7.6962   -0.9330    0.0000 F   0  0  0  0  0  0  0  0  0  0  0  0
    5.8301    0.2990    0.0000 F   0  0  0  0  0  0  0  0  0  0  0  0
    6.8301   -1.4330    0.0000 F   0  0  0  0  0  0  0  0  0  0  0  0
    8.5622   -0.4330    0.0000 F   0  0  0  0  0  0  0  0  0  0  0  0
    7.5622    1.2990    0.0000 F   0  0  0  0  0  0  0  0  0  0  0  0
    4.9641   -0.2010    0.0000 F   0  0  0  0  0  0  0  0  0  0  0  0
    5.9641   -1.9330    0.0000 F   0  0  0  0  0  0  0  0  0  0  0  0
    9.4282    0.0670    0.0000 F   0  0  0  0  0  0  0  0  0  0  0  0
    8.4282    1.7990    0.0000 F   0  0  0  0  0  0  0  0  0  0  0  0
    4.0981   -0.7010    0.0000 F   0  0  0  0  0  0  0  0  0  0  0  0
    5.0981   -2.4330    0.0000 F   0  0  0  0  0  0  0  0  0  0  0  0
    3.2321   -1.2010    0.0000 F   0  0  0  0  0  0  0  0  0  0  0  0
    4.2321   -2.9330    0.0000 F   0  0  0  0  0  0  0  0  0  0  0  0
    2.0000   -3.0670    0.0000 F   0  0  0  0  0  0  0  0  0  0  0  0
    2.3660   -1.7010    0.0000 F   0  0  0  0  0  0  0  0  0  0  0  0
    3.3660   -3.4330    0.0000 F   0  0  0  0  0  0  0  0  0  0  0  0
   10.2942    0.5670    0.0000 O   0  0  0  0  0  0  0  0  0  0  0  0
    9.2942    2.2990    0.0000 O   0  0  0  0  0  0  0  0  0  0  0  0
   13.2583    1.4330    0.0000 O   0  0  0  0  0  0  0  0  0  0  0  0
   12.3923    2.9330    0.0000 O   0  0  0  0  0  0  0  0  0  0  0  0
   10.6603    1.9330    0.0000 N   0  0  3  0  0  0  0  0  0  0  0  0
    7.1962   -0.0670    0.0000 C   0  0  0  0  0  0  0  0  0  0  0  0
    6.3301   -0.5670    0.0000 C   0  0  0  0  0  0  0  0  0  0  0  0
    8.0622    0.4330    0.0000 C   0  0  0  0  0  0  0  0  0  0  0  0
    8.9282    0.9330    0.0000 C   0  0  0  0  0  0  0  0  0  0  0  0
    5.4641   -1.0670    0.0000 C   0  0  0  0  0  0  0  0  0  0  0  0
    4.5981   -1.5670    0.0000 C   0  0  0  0  0  0  0  0  0  0  0  0
    3.7321   -2.0670    0.0000 C   0  0  0  0  0  0  0  0  0  0  0  0
   10.6603    2.9330    0.0000 C   0  0  0  0  0  0  0  0  0  0  0  0
   11.5263    1.4330    0.0000 C   0  0  0  0  0  0  0  0  0  0  0  0
    2.8660   -2.5670    0.0000 C   0  0  0  0  0  0  0  0  0  0  0  0
   11.5263    3.4330    0.0000 C   0  0  0  0  0  0  0  0  0  0  0  0
   12.3923    1.9330    0.0000 C   0  0  0  0  0  0  0  0  0  0  0  0
   10.4482    3.5156    0.0000 H   0  0  0  0  0  0  0  0  0  0  0  0
   10.0497    2.8254    0.0000 H   0  0  0  0  0  0  0  0  0  0  0  0
   11.1278    0.9581    0.0000 H   0  0  0  0  0  0  0  0  0  0  0  0
   11.9248    0.9581    0.0000 H   0  0  0  0  0  0  0  0  0  0  0  0
   11.8363    2.8961    0.0000 H   0  0  0  0  0  0  0  0  0  0  0  0
   12.0632    3.7430    0.0000 H   0  0  0  0  0  0  0  0  0  0  0  0
   11.2163    3.9700    0.0000 H   0  0  0  0  0  0  0  0  0  0  0  0
   13.7953    1.7430    0.0000 H   0  0  0  0  0  0  0  0  0  0  0  0
  1 19  2  0  0  0  0
  1 20  2  0  0  0  0
  1 23  1  0  0  0  0
  1 27  1  0  0  0  0
  2 24  1  0  0  0  0
  3 24  1  0  0  0  0
  4 25  1  0  0  0  0
  5 25  1  0  0  0  0
  6 26  1  0  0  0  0
  7 26  1  0  0  0  0
  8 28  1  0  0  0  0
  9 28  1  0  0  0  0
 10 27  1  0  0  0  0
 11 27  1  0  0  0  0
 12 29  1  0  0  0  0
 13 29  1  0  0  0  0
 14 30  1  0  0  0  0
 15 30  1  0  0  0  0
 16 33  1  0  0  0  0
 17 33  1  0  0  0  0
 18 33  1  0  0  0  0
 21 35  1  0  0  0  0
 21 43  1  0  0  0  0
 22 35  2  0  0  0  0
 23 31  1  0  0  0  0
 23 32  1  0  0  0  0
 24 25  1  0  0  0  0
 24 26  1  0  0  0  0
 25 28  1  0  0  0  0
 26 27  1  0  0  0  0
 28 29  1  0  0  0  0
 29 30  1  0  0  0  0
 30 33  1  0  0  0  0
 31 34  1  0  0  0  0
 31 36  1  0  0  0  0
 31 37  1  0  0  0  0
 32 35  1  0  0  0  0
 32 38  1  0  0  0  0
 32 39  1  0  0  0  0
 34 40  1  0  0  0  0
 34 41  1  0  0  0  0
 34 42  1  0  0  0  0
M  END
> <PUBCHEM_COMPOUND_CID>
18134

> <PUBCHEM_COMPOUND_CANONICALIZED>
1

> <PUBCHEM_CACTVS_COMPLEXITY>
905

> <PUBCHEM_CACTVS_HBOND_ACCEPTOR>
22

> <PUBCHEM_CACTVS_HBOND_DONOR>
1

> <PUBCHEM_CACTVS_ROTATABLE_BOND>
11

> <PUBCHEM_CACTVS_SUBSKEYS>
AAADccByOcBAAAAAAAAAAAAAAAAAAAAAAAAAAAAAAAAAAAAAAAAAHwQASAAACADBwBQCCAIAAgIIAACQCHBAAAAAAAAAAACIAAACAAIAACAAAAAAAACQAAEAgIAAAAAAAAAAAAAAAAAAAAAAAAAAAAAAAA==

> <PUBCHEM_IUPAC_OPENEYE_NAME>
2-[ethyl(1,1,2,2,3,3,4,4,5,5,6,6,7,7,8,8,8-heptadecafluorooctylsulfonyl)amino]acetic acid

> <PUBCHEM_IUPAC_CAS_NAME>
2-[ethyl(1,1,2,2,3,3,4,4,5,5,6,6,7,7,8,8,8-heptadecafluorooctylsulfonyl)amino]acetic acid

> <PUBCHEM_IUPAC_NAME_MARKUP>
2-[ethyl(1,1,2,2,3,3,4,4,5,5,6,6,7,7,8,8,8-heptadecafluorooctylsulfonyl)amino]acetic acid

> <PUBCHEM_IUPAC_NAME>
2-[ethyl(1,1,2,2,3,3,4,4,5,5,6,6,7,7,8,8,8-heptadecafluorooctylsulfonyl)amino]acetic acid

> <PUBCHEM_IUPAC_SYSTEMATIC_NAME>
2-[ethyl-[1,1,2,2,3,3,4,4,5,5,6,6,7,7,8,8,8-heptadecakis(fluoranyl)octylsulfonyl]amino]ethanoic acid

> <PUBCHEM_IUPAC_TRADITIONAL_NAME>
2-[ethyl(1,1,2,2,3,3,4,4,5,5,6,6,7,7,8,8,8-heptadecafluorooctylsulfonyl)amino]acetic acid

> <PUBCHEM_IUPAC_INCHI>
InChI=1S/C12H8F17NO4S/c1-2-30(3-4(31)32)35(33,34)12(28,29)10(23,24)8(19,20)6(15,16)5(13,14)7(17,18)9(21,22)11(25,26)27/h2-3H2,1H3,(H,31,32)

> <PUBCHEM_IUPAC_INCHIKEY>
CKRXVVGETMYFIO-UHFFFAOYSA-N

> <PUBCHEM_XLOGP3_AA>
5.4

> <PUBCHEM_EXACT_MASS>
584.9902577

> <PUBCHEM_MOLECULAR_FORMULA>
C12H8F17NO4S

> <PUBCHEM_MOLECULAR_WEIGHT>
585.24

> <PUBCHEM_SMILES>
CCN(CC(=O)O)S(=O)(=O)C(C(C(C(C(C(C(C(F)(F)F)(F)F)(F)F)(F)F)(F)F)(F)F)(F)F)(F)F

> <PUBCHEM_CONNECTIVITY_SMILES>
CCN(CC(=O)O)S(=O)(=O)C(C(C(C(C(C(C(C(F)(F)F)(F)F)(F)F)(F)F)(F)F)(F)F)(F)F)(F)F

> <PUBCHEM_CACTVS_TPSA>
83.1

> <PUBCHEM_MONOISOTOPIC_WEIGHT>
584.9902577

> <PUBCHEM_TOTAL_CHARGE>
0

> <PUBCHEM_HEAVY_ATOM_COUNT>
35

> <PUBCHEM_ATOM_DEF_STEREO_COUNT>
0

> <PUBCHEM_ATOM_UDEF_STEREO_COUNT>
0

> <PUBCHEM_BOND_DEF_STEREO_COUNT>
0

> <PUBCHEM_BOND_UDEF_STEREO_COUNT>
0

> <PUBCHEM_ISOTOPIC_ATOM_COUNT>
0

> <PUBCHEM_COMPONENT_COUNT>
1

> <PUBCHEM_CACTVS_TAUTO_COUNT>
-1

> <PUBCHEM_COORDINATE_TYPE>
1
5
255

$$$$
