18178
  -OEChem-05122608292D

 32 34  0     1  0  0  0  0  0999 V2000
    2.8660    0.4827    0.0000 C   0  0  3  0  0  0  0  0  0  0  0  0
    2.0000    0.9827    0.0000 C   0  0  0  0  0  0  0  0  0  0  0  0
    2.0000    1.9827    0.0000 C   0  0  0  0  0  0  0  0  0  0  0  0
    3.7321    0.9827    0.0000 C   0  0  0  0  0  0  0  0  0  0  0  0
    2.8660    2.4827    0.0000 C   0  0  0  0  0  0  0  0  0  0  0  0
    3.7321    1.9827    0.0000 C   0  0  0  0  0  0  0  0  0  0  0  0
    2.8660   -0.5173    0.0000 C   0  0  0  0  0  0  0  0  0  0  0  0
    4.6260    0.4480    0.0000 C   0  0  0  0  0  0  0  0  0  0  0  0
    4.6260    2.5173    0.0000 C   0  0  0  0  0  0  0  0  0  0  0  0
    2.0000   -1.0173    0.0000 C   0  0  0  0  0  0  0  0  0  0  0  0
    3.7321   -1.0173    0.0000 C   0  0  0  0  0  0  0  0  0  0  0  0
    5.5321    0.9619    0.0000 C   0  0  0  0  0  0  0  0  0  0  0  0
    5.5321    2.0035    0.0000 C   0  0  0  0  0  0  0  0  0  0  0  0
    2.0000   -2.0173    0.0000 C   0  0  0  0  0  0  0  0  0  0  0  0
    3.7321   -2.0173    0.0000 C   0  0  0  0  0  0  0  0  0  0  0  0
    2.8660   -2.5173    0.0000 C   0  0  0  0  0  0  0  0  0  0  0  0
    2.3291    0.1727    0.0000 H   0  0  0  0  0  0  0  0  0  0  0  0
    1.3894    1.0903    0.0000 H   0  0  0  0  0  0  0  0  0  0  0  0
    1.7880    0.4001    0.0000 H   0  0  0  0  0  0  0  0  0  0  0  0
    1.7880    2.5653    0.0000 H   0  0  0  0  0  0  0  0  0  0  0  0
    1.3894    1.8750    0.0000 H   0  0  0  0  0  0  0  0  0  0  0  0
    3.2646    2.9576    0.0000 H   0  0  0  0  0  0  0  0  0  0  0  0
    2.4675    2.9576    0.0000 H   0  0  0  0  0  0  0  0  0  0  0  0
    4.6188   -0.1720    0.0000 H   0  0  0  0  0  0  0  0  0  0  0  0
    4.6188    3.1373    0.0000 H   0  0  0  0  0  0  0  0  0  0  0  0
    1.4631   -0.7073    0.0000 H   0  0  0  0  0  0  0  0  0  0  0  0
    4.2690   -0.7073    0.0000 H   0  0  0  0  0  0  0  0  0  0  0  0
    6.0678    0.6498    0.0000 H   0  0  0  0  0  0  0  0  0  0  0  0
    6.0678    2.3156    0.0000 H   0  0  0  0  0  0  0  0  0  0  0  0
    1.4631   -2.3273    0.0000 H   0  0  0  0  0  0  0  0  0  0  0  0
    4.2690   -2.3273    0.0000 H   0  0  0  0  0  0  0  0  0  0  0  0
    2.8660   -3.1373    0.0000 H   0  0  0  0  0  0  0  0  0  0  0  0
  1  2  1  0  0  0  0
  1  4  1  0  0  0  0
  1  7  1  0  0  0  0
  1 17  1  0  0  0  0
  2  3  1  0  0  0  0
  2 18  1  0  0  0  0
  2 19  1  0  0  0  0
  3  5  1  0  0  0  0
  3 20  1  0  0  0  0
  3 21  1  0  0  0  0
  4  6  1  0  0  0  0
  4  8  2  0  0  0  0
  5  6  1  0  0  0  0
  5 22  1  0  0  0  0
  5 23  1  0  0  0  0
  6  9  2  0  0  0  0
  7 10  2  0  0  0  0
  7 11  1  0  0  0  0
  8 12  1  0  0  0  0
  8 24  1  0  0  0  0
  9 13  1  0  0  0  0
  9 25  1  0  0  0  0
 10 14  1  0  0  0  0
 10 26  1  0  0  0  0
 11 15  2  0  0  0  0
 11 27  1  0  0  0  0
 12 13  2  0  0  0  0
 12 28  1  0  0  0  0
 13 29  1  0  0  0  0
 14 16  2  0  0  0  0
 14 30  1  0  0  0  0
 15 16  1  0  0  0  0
 15 31  1  0  0  0  0
 16 32  1  0  0  0  0
M  END
> <PUBCHEM_COMPOUND_CID>
18178

> <PUBCHEM_COMPOUND_CANONICALIZED>
1

> <PUBCHEM_CACTVS_COMPLEXITY>
214

> <PUBCHEM_CACTVS_HBOND_ACCEPTOR>
0

> <PUBCHEM_CACTVS_HBOND_DONOR>
0

> <PUBCHEM_CACTVS_ROTATABLE_BOND>
1

> <PUBCHEM_CACTVS_SUBSKEYS>
AAADceB4AAAAAAAAAAAAAAAAAAAAAAAAAAAwYMAAAAAAAADBQAAAGAAAAAAADQCAGAAwAIAAAACAAiBCAAACAAAgAAAIiAAAAIgIICKAERCAIAAggAAIiAcAgMAOgAAAAAAQAAAAAAQAACAAAAAAAAAAAA==

> <PUBCHEM_IUPAC_OPENEYE_NAME>
1-phenyltetralin

> <PUBCHEM_IUPAC_CAS_NAME>
1-phenyl-1,2,3,4-tetrahydronaphthalene

> <PUBCHEM_IUPAC_NAME_MARKUP>
1-phenyl-1,2,3,4-tetrahydronaphthalene

> <PUBCHEM_IUPAC_NAME>
1-phenyl-1,2,3,4-tetrahydronaphthalene

> <PUBCHEM_IUPAC_SYSTEMATIC_NAME>
1-phenyl-1,2,3,4-tetrahydronaphthalene

> <PUBCHEM_IUPAC_TRADITIONAL_NAME>
1-phenyltetralin

> <PUBCHEM_IUPAC_INCHI>
InChI=1S/C16H16/c1-2-7-13(8-3-1)16-12-6-10-14-9-4-5-11-15(14)16/h1-5,7-9,11,16H,6,10,12H2

> <PUBCHEM_IUPAC_INCHIKEY>
YSPDISPRPJFBCV-UHFFFAOYSA-N

> <PUBCHEM_XLOGP3_AA>
4.8

> <PUBCHEM_EXACT_MASS>
208.125200510

> <PUBCHEM_MOLECULAR_FORMULA>
C16H16

> <PUBCHEM_MOLECULAR_WEIGHT>
208.30

> <PUBCHEM_SMILES>
C1CC(C2=CC=CC=C2C1)C3=CC=CC=C3

> <PUBCHEM_CONNECTIVITY_SMILES>
C1CC(C2=CC=CC=C2C1)C3=CC=CC=C3

> <PUBCHEM_CACTVS_TPSA>
0

> <PUBCHEM_MONOISOTOPIC_WEIGHT>
208.125200510

> <PUBCHEM_TOTAL_CHARGE>
0

> <PUBCHEM_HEAVY_ATOM_COUNT>
16

> <PUBCHEM_ATOM_DEF_STEREO_COUNT>
0

> <PUBCHEM_ATOM_UDEF_STEREO_COUNT>
1

> <PUBCHEM_BOND_DEF_STEREO_COUNT>
0

> <PUBCHEM_BOND_UDEF_STEREO_COUNT>
0

> <PUBCHEM_ISOTOPIC_ATOM_COUNT>
0

> <PUBCHEM_COMPONENT_COUNT>
1

> <PUBCHEM_CACTVS_TAUTO_COUNT>
-1

> <PUBCHEM_COORDINATE_TYPE>
1
5
255

> <PUBCHEM_BONDANNOTATIONS>
1  7  3
10  14  8
11  15  8
12  13  8
14  16  8
15  16  8
4  6  8
4  8  8
6  9  8
7  10  8
7  11  8
8  12  8
9  13  8

$$$$
