18360
  -OEChem-05122608102D

 33 34  0     1  0  0  0  0  0999 V2000
    3.0000   -3.6830    0.0000 O   0  0  0  0  0  0  0  0  0  0  0  0
    3.3660   -1.3170    0.0000 O   0  0  0  0  0  0  0  0  0  0  0  0
    2.5000   -2.8170    0.0000 C   0  0  3  0  0  0  0  0  0  0  0  0
    3.3660    2.6830    0.0000 C   0  0  0  0  0  0  0  0  0  0  0  0
    2.0000   -3.6830    0.0000 C   0  0  0  0  0  0  0  0  0  0  0  0
    2.5000   -1.8170    0.0000 C   0  0  0  0  0  0  0  0  0  0  0  0
    3.3660    1.6830    0.0000 C   0  0  0  0  0  0  0  0  0  0  0  0
    3.3660    3.6830    0.0000 C   0  0  0  0  0  0  0  0  0  0  0  0
    4.3660    2.6830    0.0000 C   0  0  0  0  0  0  0  0  0  0  0  0
    2.3660    2.6830    0.0000 C   0  0  0  0  0  0  0  0  0  0  0  0
    4.2321    1.1830    0.0000 C   0  0  0  0  0  0  0  0  0  0  0  0
    2.5000    1.1830    0.0000 C   0  0  0  0  0  0  0  0  0  0  0  0
    3.3660   -0.3170    0.0000 C   0  0  0  0  0  0  0  0  0  0  0  0
    4.2321    0.1830    0.0000 C   0  0  0  0  0  0  0  0  0  0  0  0
    2.5000    0.1830    0.0000 C   0  0  0  0  0  0  0  0  0  0  0  0
    3.0989   -2.6565    0.0000 H   0  0  0  0  0  0  0  0  0  0  0  0
    1.4174   -3.4710    0.0000 H   0  0  0  0  0  0  0  0  0  0  0  0
    1.8923   -4.2936    0.0000 H   0  0  0  0  0  0  0  0  0  0  0  0
    2.2880   -1.2344    0.0000 H   0  0  0  0  0  0  0  0  0  0  0  0
    1.8894   -1.9247    0.0000 H   0  0  0  0  0  0  0  0  0  0  0  0
    3.9860    3.6830    0.0000 H   0  0  0  0  0  0  0  0  0  0  0  0
    3.3660    4.3030    0.0000 H   0  0  0  0  0  0  0  0  0  0  0  0
    2.7460    3.6830    0.0000 H   0  0  0  0  0  0  0  0  0  0  0  0
    4.3660    2.0630    0.0000 H   0  0  0  0  0  0  0  0  0  0  0  0
    4.9860    2.6830    0.0000 H   0  0  0  0  0  0  0  0  0  0  0  0
    4.3660    3.3030    0.0000 H   0  0  0  0  0  0  0  0  0  0  0  0
    2.3660    3.3030    0.0000 H   0  0  0  0  0  0  0  0  0  0  0  0
    1.7460    2.6830    0.0000 H   0  0  0  0  0  0  0  0  0  0  0  0
    2.3660    2.0630    0.0000 H   0  0  0  0  0  0  0  0  0  0  0  0
    4.7690    1.4930    0.0000 H   0  0  0  0  0  0  0  0  0  0  0  0
    1.9631    1.4930    0.0000 H   0  0  0  0  0  0  0  0  0  0  0  0
    4.7690   -0.1270    0.0000 H   0  0  0  0  0  0  0  0  0  0  0  0
    1.9631   -0.1270    0.0000 H   0  0  0  0  0  0  0  0  0  0  0  0
  1  3  1  0  0  0  0
  1  5  1  0  0  0  0
  2  6  1  0  0  0  0
  2 13  1  0  0  0  0
  3  5  1  0  0  0  0
  3  6  1  0  0  0  0
  3 16  1  0  0  0  0
  4  7  1  0  0  0  0
  4  8  1  0  0  0  0
  4  9  1  0  0  0  0
  4 10  1  0  0  0  0
  5 17  1  0  0  0  0
  5 18  1  0  0  0  0
  6 19  1  0  0  0  0
  6 20  1  0  0  0  0
  7 11  2  0  0  0  0
  7 12  1  0  0  0  0
  8 21  1  0  0  0  0
  8 22  1  0  0  0  0
  8 23  1  0  0  0  0
  9 24  1  0  0  0  0
  9 25  1  0  0  0  0
  9 26  1  0  0  0  0
 10 27  1  0  0  0  0
 10 28  1  0  0  0  0
 10 29  1  0  0  0  0
 11 14  1  0  0  0  0
 11 30  1  0  0  0  0
 12 15  2  0  0  0  0
 12 31  1  0  0  0  0
 13 14  2  0  0  0  0
 13 15  1  0  0  0  0
 14 32  1  0  0  0  0
 15 33  1  0  0  0  0
M  END
> <PUBCHEM_COMPOUND_CID>
18360

> <PUBCHEM_COMPOUND_CANONICALIZED>
1

> <PUBCHEM_CACTVS_COMPLEXITY>
199

> <PUBCHEM_CACTVS_HBOND_ACCEPTOR>
2

> <PUBCHEM_CACTVS_HBOND_DONOR>
0

> <PUBCHEM_CACTVS_ROTATABLE_BOND>
4

> <PUBCHEM_CACTVS_SUBSKEYS>
AAADceBwMAAAAAAAAAAAAAAAEgAAAAAAAAAwAAAAAAAAAAABAAAAGgAAAAAADhSgmAIyBoAABACAAiBCAAACCAAgIAAIiAAGCIgNJiKEMRqCOCClwBEKqAeAwNAPoAAAAAAAAABAAAAAAAAAAAAAAAAAAA==

> <PUBCHEM_IUPAC_OPENEYE_NAME>
2-[(4-tert-butylphenoxy)methyl]oxirane

> <PUBCHEM_IUPAC_CAS_NAME>
2-[(4-tert-butylphenoxy)methyl]oxirane

> <PUBCHEM_IUPAC_NAME_MARKUP>
2-[(4-<I>tert</I>-butylphenoxy)methyl]oxirane

> <PUBCHEM_IUPAC_NAME>
2-[(4-tert-butylphenoxy)methyl]oxirane

> <PUBCHEM_IUPAC_SYSTEMATIC_NAME>
2-[(4-tert-butylphenoxy)methyl]oxirane

> <PUBCHEM_IUPAC_TRADITIONAL_NAME>
2-[(4-tert-butylphenoxy)methyl]oxirane

> <PUBCHEM_IUPAC_INCHI>
InChI=1S/C13H18O2/c1-13(2,3)10-4-6-11(7-5-10)14-8-12-9-15-12/h4-7,12H,8-9H2,1-3H3

> <PUBCHEM_IUPAC_INCHIKEY>
HHRACYLRBOUBKM-UHFFFAOYSA-N

> <PUBCHEM_XLOGP3_AA>
3.3

> <PUBCHEM_EXACT_MASS>
206.130679813

> <PUBCHEM_MOLECULAR_FORMULA>
C13H18O2

> <PUBCHEM_MOLECULAR_WEIGHT>
206.28

> <PUBCHEM_SMILES>
CC(C)(C)C1=CC=C(C=C1)OCC2CO2

> <PUBCHEM_CONNECTIVITY_SMILES>
CC(C)(C)C1=CC=C(C=C1)OCC2CO2

> <PUBCHEM_CACTVS_TPSA>
21.8

> <PUBCHEM_MONOISOTOPIC_WEIGHT>
206.130679813

> <PUBCHEM_TOTAL_CHARGE>
0

> <PUBCHEM_HEAVY_ATOM_COUNT>
15

> <PUBCHEM_ATOM_DEF_STEREO_COUNT>
0

> <PUBCHEM_ATOM_UDEF_STEREO_COUNT>
1

> <PUBCHEM_BOND_DEF_STEREO_COUNT>
0

> <PUBCHEM_BOND_UDEF_STEREO_COUNT>
0

> <PUBCHEM_ISOTOPIC_ATOM_COUNT>
0

> <PUBCHEM_COMPONENT_COUNT>
1

> <PUBCHEM_CACTVS_TAUTO_COUNT>
-1

> <PUBCHEM_COORDINATE_TYPE>
1
5
255

> <PUBCHEM_BONDANNOTATIONS>
11  14  8
12  15  8
13  14  8
13  15  8
3  6  3
7  11  8
7  12  8

$$$$
