18508
  -OEChem-05122608452D

 30 30  0     0  0  0  0  0  0999 V2000
    3.0000    0.0000    0.0000 C   0  0  0  0  0  0  0  0  0  0  0  0
    3.0000    1.0000    0.0000 C   0  0  0  0  0  0  0  0  0  0  0  0
    2.1340   -0.5000    0.0000 C   0  0  0  0  0  0  0  0  0  0  0  0
    3.8660   -0.5000    0.0000 C   0  0  0  0  0  0  0  0  0  0  0  0
    2.1340   -1.5000    0.0000 C   0  0  0  0  0  0  0  0  0  0  0  0
    3.8660   -1.5000    0.0000 C   0  0  0  0  0  0  0  0  0  0  0  0
    3.0000   -2.0000    0.0000 C   0  0  0  0  0  0  0  0  0  0  0  0
    3.0000    2.0000    0.0000 C   0  0  0  0  0  0  0  0  0  0  0  0
    4.0000    1.0000    0.0000 C   0  0  0  0  0  0  0  0  0  0  0  0
    2.0000    1.0000    0.0000 C   0  0  0  0  0  0  0  0  0  0  0  0
    3.5369    0.3100    0.0000 H   0  0  0  0  0  0  0  0  0  0  0  0
    1.9219    0.0826    0.0000 H   0  0  0  0  0  0  0  0  0  0  0  0
    1.5234   -0.6077    0.0000 H   0  0  0  0  0  0  0  0  0  0  0  0
    4.4766   -0.6077    0.0000 H   0  0  0  0  0  0  0  0  0  0  0  0
    4.0781    0.0826    0.0000 H   0  0  0  0  0  0  0  0  0  0  0  0
    1.5234   -1.3923    0.0000 H   0  0  0  0  0  0  0  0  0  0  0  0
    1.9219   -2.0826    0.0000 H   0  0  0  0  0  0  0  0  0  0  0  0
    4.0781   -2.0826    0.0000 H   0  0  0  0  0  0  0  0  0  0  0  0
    4.4766   -1.3923    0.0000 H   0  0  0  0  0  0  0  0  0  0  0  0
    2.6015   -2.4750    0.0000 H   0  0  0  0  0  0  0  0  0  0  0  0
    3.3985   -2.4750    0.0000 H   0  0  0  0  0  0  0  0  0  0  0  0
    3.6200    2.0000    0.0000 H   0  0  0  0  0  0  0  0  0  0  0  0
    3.0000    2.6200    0.0000 H   0  0  0  0  0  0  0  0  0  0  0  0
    2.3800    2.0000    0.0000 H   0  0  0  0  0  0  0  0  0  0  0  0
    4.0000    0.3800    0.0000 H   0  0  0  0  0  0  0  0  0  0  0  0
    4.6200    1.0000    0.0000 H   0  0  0  0  0  0  0  0  0  0  0  0
    4.0000    1.6200    0.0000 H   0  0  0  0  0  0  0  0  0  0  0  0
    2.0000    1.6200    0.0000 H   0  0  0  0  0  0  0  0  0  0  0  0
    1.3800    1.0000    0.0000 H   0  0  0  0  0  0  0  0  0  0  0  0
    2.0000    0.3800    0.0000 H   0  0  0  0  0  0  0  0  0  0  0  0
  1  2  1  0  0  0  0
  1  3  1  0  0  0  0
  1  4  1  0  0  0  0
  1 11  1  0  0  0  0
  2  8  1  0  0  0  0
  2  9  1  0  0  0  0
  2 10  1  0  0  0  0
  3  5  1  0  0  0  0
  3 12  1  0  0  0  0
  3 13  1  0  0  0  0
  4  6  1  0  0  0  0
  4 14  1  0  0  0  0
  4 15  1  0  0  0  0
  5  7  1  0  0  0  0
  5 16  1  0  0  0  0
  5 17  1  0  0  0  0
  6  7  1  0  0  0  0
  6 18  1  0  0  0  0
  6 19  1  0  0  0  0
  7 20  1  0  0  0  0
  7 21  1  0  0  0  0
  8 22  1  0  0  0  0
  8 23  1  0  0  0  0
  8 24  1  0  0  0  0
  9 25  1  0  0  0  0
  9 26  1  0  0  0  0
  9 27  1  0  0  0  0
 10 28  1  0  0  0  0
 10 29  1  0  0  0  0
 10 30  1  0  0  0  0
M  END
> <PUBCHEM_COMPOUND_CID>
18508

> <PUBCHEM_COMPOUND_CANONICALIZED>
1

> <PUBCHEM_CACTVS_COMPLEXITY>
91.1

> <PUBCHEM_CACTVS_HBOND_ACCEPTOR>
0

> <PUBCHEM_CACTVS_HBOND_DONOR>
0

> <PUBCHEM_CACTVS_ROTATABLE_BOND>
1

> <PUBCHEM_CACTVS_SUBSKEYS>
AAADceBwAAAAAAAAAAAAAAAAAAAAAAAAAAAwAAAAAAAAAAAAAAAAGAAAAAAADwCAAAACAAAAAAAAAAAAAAAAAAAAAAAAAAAAAAAAAAIAAAAAAAAAAAAAAAEAgMAPgAAAAAAAAAAAAAAAAAAAAAAAAAAAAA==

> <PUBCHEM_IUPAC_OPENEYE_NAME>
tert-butylcyclohexane

> <PUBCHEM_IUPAC_CAS_NAME>
tert-butylcyclohexane

> <PUBCHEM_IUPAC_NAME_MARKUP>
<I>tert</I>-butylcyclohexane

> <PUBCHEM_IUPAC_NAME>
tert-butylcyclohexane

> <PUBCHEM_IUPAC_SYSTEMATIC_NAME>
tert-butylcyclohexane

> <PUBCHEM_IUPAC_TRADITIONAL_NAME>
tert-butylcyclohexane

> <PUBCHEM_IUPAC_INCHI>
InChI=1S/C10H20/c1-10(2,3)9-7-5-4-6-8-9/h9H,4-8H2,1-3H3

> <PUBCHEM_IUPAC_INCHIKEY>
XTVMZZBLCLWBPM-UHFFFAOYSA-N

> <PUBCHEM_XLOGP3_AA>
4.7

> <PUBCHEM_EXACT_MASS>
140.156500638

> <PUBCHEM_MOLECULAR_FORMULA>
C10H20

> <PUBCHEM_MOLECULAR_WEIGHT>
140.27

> <PUBCHEM_SMILES>
CC(C)(C)C1CCCCC1

> <PUBCHEM_CONNECTIVITY_SMILES>
CC(C)(C)C1CCCCC1

> <PUBCHEM_CACTVS_TPSA>
0

> <PUBCHEM_MONOISOTOPIC_WEIGHT>
140.156500638

> <PUBCHEM_TOTAL_CHARGE>
0

> <PUBCHEM_HEAVY_ATOM_COUNT>
10

> <PUBCHEM_ATOM_DEF_STEREO_COUNT>
0

> <PUBCHEM_ATOM_UDEF_STEREO_COUNT>
0

> <PUBCHEM_BOND_DEF_STEREO_COUNT>
0

> <PUBCHEM_BOND_UDEF_STEREO_COUNT>
0

> <PUBCHEM_ISOTOPIC_ATOM_COUNT>
0

> <PUBCHEM_COMPONENT_COUNT>
1

> <PUBCHEM_CACTVS_TAUTO_COUNT>
-1

> <PUBCHEM_COORDINATE_TYPE>
1
5
255

$$$$
