18636
  -OEChem-05122609502D

 22 24  0     0  0  0  0  0  0999 V2000
    3.7817    2.0346    0.0000 Cl  0  0  0  0  0  0  0  0  0  0  0  0
    3.7817   -2.0346    0.0000 Cl  0  0  0  0  0  0  0  0  0  0  0  0
    7.2785    2.0346    0.0000 Cl  0  0  0  0  0  0  0  0  0  0  0  0
    7.2785   -2.0346    0.0000 Cl  0  0  0  0  0  0  0  0  0  0  0  0
    2.0000    1.0242    0.0000 Cl  0  0  0  0  0  0  0  0  0  0  0  0
    2.0000   -1.0242    0.0000 Cl  0  0  0  0  0  0  0  0  0  0  0  0
    9.0603    1.0242    0.0000 Cl  0  0  0  0  0  0  0  0  0  0  0  0
    9.0603   -1.0242    0.0000 Cl  0  0  0  0  0  0  0  0  0  0  0  0
    5.5301    1.0000    0.0000 O   0  0  0  0  0  0  0  0  0  0  0  0
    5.5301   -1.0000    0.0000 O   0  0  0  0  0  0  0  0  0  0  0  0
    4.6641    0.5000    0.0000 C   0  0  0  0  0  0  0  0  0  0  0  0
    6.3962    0.5000    0.0000 C   0  0  0  0  0  0  0  0  0  0  0  0
    4.6641   -0.5000    0.0000 C   0  0  0  0  0  0  0  0  0  0  0  0
    6.3962   -0.5000    0.0000 C   0  0  0  0  0  0  0  0  0  0  0  0
    3.7702    1.0347    0.0000 C   0  0  0  0  0  0  0  0  0  0  0  0
    3.7702   -1.0347    0.0000 C   0  0  0  0  0  0  0  0  0  0  0  0
    7.2901    1.0347    0.0000 C   0  0  0  0  0  0  0  0  0  0  0  0
    7.2901   -1.0347    0.0000 C   0  0  0  0  0  0  0  0  0  0  0  0
    2.8641   -0.5208    0.0000 C   0  0  0  0  0  0  0  0  0  0  0  0
    8.1962   -0.5208    0.0000 C   0  0  0  0  0  0  0  0  0  0  0  0
    8.1962    0.5208    0.0000 C   0  0  0  0  0  0  0  0  0  0  0  0
    2.8641    0.5208    0.0000 C   0  0  0  0  0  0  0  0  0  0  0  0
  1 15  1  0  0  0  0
  2 16  1  0  0  0  0
  3 17  1  0  0  0  0
  4 18  1  0  0  0  0
  5 22  1  0  0  0  0
  6 19  1  0  0  0  0
  7 21  1  0  0  0  0
  8 20  1  0  0  0  0
  9 11  1  0  0  0  0
  9 12  1  0  0  0  0
 10 13  1  0  0  0  0
 10 14  1  0  0  0  0
 11 13  2  0  0  0  0
 11 15  1  0  0  0  0
 12 14  2  0  0  0  0
 12 17  1  0  0  0  0
 13 16  1  0  0  0  0
 14 18  1  0  0  0  0
 15 22  2  0  0  0  0
 16 19  2  0  0  0  0
 17 21  2  0  0  0  0
 18 20  2  0  0  0  0
 19 22  1  0  0  0  0
 20 21  1  0  0  0  0
M  END
> <PUBCHEM_COMPOUND_CID>
18636

> <PUBCHEM_COMPOUND_CANONICALIZED>
1

> <PUBCHEM_CACTVS_COMPLEXITY>
354

> <PUBCHEM_CACTVS_HBOND_ACCEPTOR>
2

> <PUBCHEM_CACTVS_HBOND_DONOR>
0

> <PUBCHEM_CACTVS_ROTATABLE_BOND>
0

> <PUBCHEM_CACTVS_SUBSKEYS>
AAADcQBwMAAHgAAAAAAAAAAAAAAAAAAAAAA0YIAAAAAAAACRQAAACgIAAAAACAYAkCAABoAABACAAABAAAACCAAgJEAAikAEi4gNJiOFMhqCOCKkwBEKqAeAQAAAACAQAQCASAQAQCACAQCQCAAAAAAAAA==

> <PUBCHEM_IUPAC_OPENEYE_NAME>
1,2,3,4,6,7,8,9-octachlorodibenzo-p-dioxin

> <PUBCHEM_IUPAC_CAS_NAME>
1,2,3,4,6,7,8,9-octachlorodibenzo-p-dioxin

> <PUBCHEM_IUPAC_NAME_MARKUP>
1,2,3,4,6,7,8,9-octachlorodibenzo-p-dioxin

> <PUBCHEM_IUPAC_NAME>
1,2,3,4,6,7,8,9-octachlorodibenzo-p-dioxin

> <PUBCHEM_IUPAC_SYSTEMATIC_NAME>
1,2,3,4,6,7,8,9-octakis(chloranyl)dibenzo-p-dioxin

> <PUBCHEM_IUPAC_TRADITIONAL_NAME>
1,2,3,4,6,7,8,9-octachlorodibenzo-p-dioxin

> <PUBCHEM_IUPAC_INCHI>
InChI=1S/C12Cl8O2/c13-1-2(14)6(18)10-9(5(1)17)21-11-7(19)3(15)4(16)8(20)12(11)22-10

> <PUBCHEM_IUPAC_INCHIKEY>
FOIBFBMSLDGNHL-UHFFFAOYSA-N

> <PUBCHEM_XLOGP3_AA>
8.1

> <PUBCHEM_EXACT_MASS>
459.734751

> <PUBCHEM_MOLECULAR_FORMULA>
C12Cl8O2

> <PUBCHEM_MOLECULAR_WEIGHT>
459.7

> <PUBCHEM_SMILES>
C12=C(C(=C(C(=C1Cl)Cl)Cl)Cl)OC3=C(O2)C(=C(C(=C3Cl)Cl)Cl)Cl

> <PUBCHEM_CONNECTIVITY_SMILES>
C12=C(C(=C(C(=C1Cl)Cl)Cl)Cl)OC3=C(O2)C(=C(C(=C3Cl)Cl)Cl)Cl

> <PUBCHEM_CACTVS_TPSA>
18.5

> <PUBCHEM_MONOISOTOPIC_WEIGHT>
455.740651

> <PUBCHEM_TOTAL_CHARGE>
0

> <PUBCHEM_HEAVY_ATOM_COUNT>
22

> <PUBCHEM_ATOM_DEF_STEREO_COUNT>
0

> <PUBCHEM_ATOM_UDEF_STEREO_COUNT>
0

> <PUBCHEM_BOND_DEF_STEREO_COUNT>
0

> <PUBCHEM_BOND_UDEF_STEREO_COUNT>
0

> <PUBCHEM_ISOTOPIC_ATOM_COUNT>
0

> <PUBCHEM_COMPONENT_COUNT>
1

> <PUBCHEM_CACTVS_TAUTO_COUNT>
-1

> <PUBCHEM_COORDINATE_TYPE>
1
5
255

> <PUBCHEM_BONDANNOTATIONS>
11  13  8
11  15  8
12  14  8
12  17  8
13  16  8
14  18  8
15  22  8
16  19  8
17  21  8
18  20  8
19  22  8
20  21  8

$$$$
