18640
  -OEChem-05122608362D

 29 31  0     0  0  0  0  0  0999 V2000
    2.8816   -2.5159    0.0000 O   0  0  0  0  0  0  0  0  0  0  0  0
    2.0747    1.9879    0.0000 O   0  0  0  0  0  0  0  0  0  0  0  0
    5.5388    1.9879    0.0000 O   0  0  0  0  0  0  0  0  0  0  0  0
    3.8067    1.9879    0.0000 N   0  0  0  0  0  0  0  0  0  0  0  0
    3.8067   -0.0121    0.0000 C   0  0  0  0  0  0  0  0  0  0  0  0
    2.9407    0.4879    0.0000 C   0  0  0  0  0  0  0  0  0  0  0  0
    4.6728    0.4879    0.0000 C   0  0  0  0  0  0  0  0  0  0  0  0
    3.7907   -1.0536    0.0000 C   0  0  0  0  0  0  0  0  0  0  0  0
    2.9407    1.4879    0.0000 C   0  0  0  0  0  0  0  0  0  0  0  0
    4.6728    1.4879    0.0000 C   0  0  0  0  0  0  0  0  0  0  0  0
    2.9136   -1.5164    0.0000 C   0  0  0  0  0  0  0  0  0  0  0  0
    2.0812   -0.0069    0.0000 C   0  0  0  0  0  0  0  0  0  0  0  0
    5.5828   -0.0189    0.0000 C   0  0  0  0  0  0  0  0  0  0  0  0
    4.6887   -1.5814    0.0000 C   0  0  0  0  0  0  0  0  0  0  0  0
    2.0678   -0.9985    0.0000 C   0  0  0  0  0  0  0  0  0  0  0  0
    5.5908   -1.0606    0.0000 C   0  0  0  0  0  0  0  0  0  0  0  0
    3.8067    2.9879    0.0000 C   0  0  0  0  0  0  0  0  0  0  0  0
    2.0000   -2.9879    0.0000 C   0  0  0  0  0  0  0  0  0  0  0  0
    1.5466    0.3071    0.0000 H   0  0  0  0  0  0  0  0  0  0  0  0
    6.1161    0.2972    0.0000 H   0  0  0  0  0  0  0  0  0  0  0  0
    4.6863   -2.2014    0.0000 H   0  0  0  0  0  0  0  0  0  0  0  0
    1.5249   -1.2979    0.0000 H   0  0  0  0  0  0  0  0  0  0  0  0
    6.1289   -1.3685    0.0000 H   0  0  0  0  0  0  0  0  0  0  0  0
    4.4267    2.9879    0.0000 H   0  0  0  0  0  0  0  0  0  0  0  0
    3.8067    3.6079    0.0000 H   0  0  0  0  0  0  0  0  0  0  0  0
    3.1867    2.9879    0.0000 H   0  0  0  0  0  0  0  0  0  0  0  0
    1.7073   -2.4413    0.0000 H   0  0  0  0  0  0  0  0  0  0  0  0
    1.4534   -3.2806    0.0000 H   0  0  0  0  0  0  0  0  0  0  0  0
    2.2927   -3.5345    0.0000 H   0  0  0  0  0  0  0  0  0  0  0  0
  1 11  1  0  0  0  0
  1 18  1  0  0  0  0
  2  9  2  0  0  0  0
  3 10  2  0  0  0  0
  4  9  1  0  0  0  0
  4 10  1  0  0  0  0
  4 17  1  0  0  0  0
  5  6  2  0  0  0  0
  5  7  1  0  0  0  0
  5  8  1  0  0  0  0
  6  9  1  0  0  0  0
  6 12  1  0  0  0  0
  7 10  1  0  0  0  0
  7 13  2  0  0  0  0
  8 11  2  0  0  0  0
  8 14  1  0  0  0  0
 11 15  1  0  0  0  0
 12 15  2  0  0  0  0
 12 19  1  0  0  0  0
 13 16  1  0  0  0  0
 13 20  1  0  0  0  0
 14 16  2  0  0  0  0
 14 21  1  0  0  0  0
 15 22  1  0  0  0  0
 16 23  1  0  0  0  0
 17 24  1  0  0  0  0
 17 25  1  0  0  0  0
 17 26  1  0  0  0  0
 18 27  1  0  0  0  0
 18 28  1  0  0  0  0
 18 29  1  0  0  0  0
M  END
> <PUBCHEM_COMPOUND_CID>
18640

> <PUBCHEM_COMPOUND_CANONICALIZED>
1

> <PUBCHEM_CACTVS_COMPLEXITY>
381

> <PUBCHEM_CACTVS_HBOND_ACCEPTOR>
3

> <PUBCHEM_CACTVS_HBOND_DONOR>
0

> <PUBCHEM_CACTVS_ROTATABLE_BOND>
1

> <PUBCHEM_CACTVS_SUBSKEYS>
AAADccByMAAAAAAAAAAAAAAAAAAAAAAAAAA8YIAAAAAAAADxUAAAHgAAAAAADASBmAYyBsMABACIAiFSEACCCAAkIAAIiAEODMgMJjKEtRuEMShkxjGIqYeY3/LOoAADAAAYAABAAAYAADAAAAAAAAAAAA==

> <PUBCHEM_IUPAC_OPENEYE_NAME>
6-methoxy-2-methyl-benzo[de]isoquinoline-1,3-dione

> <PUBCHEM_IUPAC_CAS_NAME>
6-methoxy-2-methylbenzo[de]isoquinoline-1,3-dione

> <PUBCHEM_IUPAC_NAME_MARKUP>
6-methoxy-2-methylbenzo[de]isoquinoline-1,3-dione

> <PUBCHEM_IUPAC_NAME>
6-methoxy-2-methylbenzo[de]isoquinoline-1,3-dione

> <PUBCHEM_IUPAC_SYSTEMATIC_NAME>
6-methoxy-2-methyl-benzo[de]isoquinoline-1,3-dione

> <PUBCHEM_IUPAC_TRADITIONAL_NAME>
6-methoxy-2-methyl-benzo[de]isoquinoline-1,3-quinone

> <PUBCHEM_IUPAC_INCHI>
InChI=1S/C14H11NO3/c1-15-13(16)9-5-3-4-8-11(18-2)7-6-10(12(8)9)14(15)17/h3-7H,1-2H3

> <PUBCHEM_IUPAC_INCHIKEY>
CNUWYNDMLFVRBU-UHFFFAOYSA-N

> <PUBCHEM_XLOGP3_AA>
2.1

> <PUBCHEM_EXACT_MASS>
241.07389321

> <PUBCHEM_MOLECULAR_FORMULA>
C14H11NO3

> <PUBCHEM_MOLECULAR_WEIGHT>
241.24

> <PUBCHEM_SMILES>
CN1C(=O)C2=C3C(=C(C=C2)OC)C=CC=C3C1=O

> <PUBCHEM_CONNECTIVITY_SMILES>
CN1C(=O)C2=C3C(=C(C=C2)OC)C=CC=C3C1=O

> <PUBCHEM_CACTVS_TPSA>
46.6

> <PUBCHEM_MONOISOTOPIC_WEIGHT>
241.07389321

> <PUBCHEM_TOTAL_CHARGE>
0

> <PUBCHEM_HEAVY_ATOM_COUNT>
18

> <PUBCHEM_ATOM_DEF_STEREO_COUNT>
0

> <PUBCHEM_ATOM_UDEF_STEREO_COUNT>
0

> <PUBCHEM_BOND_DEF_STEREO_COUNT>
0

> <PUBCHEM_BOND_UDEF_STEREO_COUNT>
0

> <PUBCHEM_ISOTOPIC_ATOM_COUNT>
0

> <PUBCHEM_COMPONENT_COUNT>
1

> <PUBCHEM_CACTVS_TAUTO_COUNT>
-1

> <PUBCHEM_COORDINATE_TYPE>
1
5
255

> <PUBCHEM_BONDANNOTATIONS>
11  15  8
12  15  8
13  16  8
14  16  8
5  6  8
5  7  8
5  8  8
6  12  8
7  13  8
8  11  8
8  14  8

$$$$
