188119
  -OEChem-05122608492D

 26 25  0     0  0  0  0  0  0999 V2000
    2.8660    1.5000    0.0000 Cl  0  0  0  0  0  0  0  0  0  0  0  0
    2.0000   -0.0000    0.0000 Cl  0  0  0  0  0  0  0  0  0  0  0  0
    8.9282   -0.0000    0.0000 Cl  0  0  0  0  0  0  0  0  0  0  0  0
    8.0622   -1.5000    0.0000 Cl  0  0  0  0  0  0  0  0  0  0  0  0
    5.4641    0.0000    0.0000 P   0  0  0  0  0  0  0  0  0  0  0  0
    4.5981   -0.5000    0.0000 O   0  0  0  0  0  0  0  0  0  0  0  0
    6.3301    0.5000    0.0000 O   0  0  0  0  0  0  0  0  0  0  0  0
    4.9641    0.8660    0.0000 O   0  0  0  0  0  0  0  0  0  0  0  0
    5.9641   -0.8660    0.0000 O   0  0  0  0  0  0  0  0  0  0  0  0
    3.7321    0.0000    0.0000 C   0  0  0  0  0  0  0  0  0  0  0  0
    7.1962    0.0000    0.0000 C   0  0  0  0  0  0  0  0  0  0  0  0
    3.7321    1.0000    0.0000 C   0  0  0  0  0  0  0  0  0  0  0  0
    2.8660   -0.5000    0.0000 C   0  0  0  0  0  0  0  0  0  0  0  0
    8.0622    0.5000    0.0000 C   0  0  0  0  0  0  0  0  0  0  0  0
    7.1962   -1.0000    0.0000 C   0  0  0  0  0  0  0  0  0  0  0  0
    3.7321   -0.6200    0.0000 H   0  0  0  0  0  0  0  0  0  0  0  0
    6.6592   -0.3100    0.0000 H   0  0  0  0  0  0  0  0  0  0  0  0
    4.3426    0.8923    0.0000 H   0  0  0  0  0  0  0  0  0  0  0  0
    3.9441    1.5826    0.0000 H   0  0  0  0  0  0  0  0  0  0  0  0
    2.4675   -0.9749    0.0000 H   0  0  0  0  0  0  0  0  0  0  0  0
    3.2646   -0.9749    0.0000 H   0  0  0  0  0  0  0  0  0  0  0  0
    8.4607    0.9749    0.0000 H   0  0  0  0  0  0  0  0  0  0  0  0
    7.6637    0.9749    0.0000 H   0  0  0  0  0  0  0  0  0  0  0  0
    6.5856   -0.8923    0.0000 H   0  0  0  0  0  0  0  0  0  0  0  0
    6.9841   -1.5826    0.0000 H   0  0  0  0  0  0  0  0  0  0  0  0
    5.2741    1.4030    0.0000 H   0  0  0  0  0  0  0  0  0  0  0  0
  1 12  1  0  0  0  0
  2 13  1  0  0  0  0
  3 14  1  0  0  0  0
  4 15  1  0  0  0  0
  5  6  1  0  0  0  0
  5  7  1  0  0  0  0
  5  8  1  0  0  0  0
  5  9  2  0  0  0  0
  6 10  1  0  0  0  0
  7 11  1  0  0  0  0
  8 26  1  0  0  0  0
 10 12  1  0  0  0  0
 10 13  1  0  0  0  0
 10 16  1  0  0  0  0
 11 14  1  0  0  0  0
 11 15  1  0  0  0  0
 11 17  1  0  0  0  0
 12 18  1  0  0  0  0
 12 19  1  0  0  0  0
 13 20  1  0  0  0  0
 13 21  1  0  0  0  0
 14 22  1  0  0  0  0
 14 23  1  0  0  0  0
 15 24  1  0  0  0  0
 15 25  1  0  0  0  0
M  END
> <PUBCHEM_COMPOUND_CID>
188119

> <PUBCHEM_COMPOUND_CANONICALIZED>
1

> <PUBCHEM_CACTVS_COMPLEXITY>
191

> <PUBCHEM_CACTVS_HBOND_ACCEPTOR>
4

> <PUBCHEM_CACTVS_HBOND_DONOR>
1

> <PUBCHEM_CACTVS_ROTATABLE_BOND>
8

> <PUBCHEM_CACTVS_SUBSKEYS>
AAADccBgOAIHAAAAAAAAAAAAAAAAAAAAAAAAAAAAAAAAAAAAAAAAGgIACCAACBeggEIAAAAAARAAQAAAAIAAAAAAAAAAAAAAAwAAAAAAAAAAAAAAAAAAAAAAAAAAAAAAAAAAAAAAAAAAAAAAAAAAAAAAAA==

> <PUBCHEM_IUPAC_OPENEYE_NAME>
bis[2-chloro-1-(chloromethyl)ethyl] hydrogen phosphate

> <PUBCHEM_IUPAC_CAS_NAME>
bis(1,3-dichloropropan-2-yl) hydrogen phosphate

> <PUBCHEM_IUPAC_NAME_MARKUP>
bis(1,3-dichloropropan-2-yl) hydrogen phosphate

> <PUBCHEM_IUPAC_NAME>
bis(1,3-dichloropropan-2-yl) hydrogen phosphate

> <PUBCHEM_IUPAC_SYSTEMATIC_NAME>
bis[1,3-bis(chloranyl)propan-2-yl] hydrogen phosphate

> <PUBCHEM_IUPAC_TRADITIONAL_NAME>
bis[2-chloro-1-(chloromethyl)ethyl] hydrogen phosphate

> <PUBCHEM_IUPAC_INCHI>
InChI=1S/C6H11Cl4O4P/c7-1-5(2-8)13-15(11,12)14-6(3-9)4-10/h5-6H,1-4H2,(H,11,12)

> <PUBCHEM_IUPAC_INCHIKEY>
NNKRUBFJSSBFSS-UHFFFAOYSA-N

> <PUBCHEM_XLOGP3_AA>
1.5

> <PUBCHEM_EXACT_MASS>
319.911956

> <PUBCHEM_MOLECULAR_FORMULA>
C6H11Cl4O4P

> <PUBCHEM_MOLECULAR_WEIGHT>
319.9

> <PUBCHEM_SMILES>
C(C(CCl)OP(=O)(O)OC(CCl)CCl)Cl

> <PUBCHEM_CONNECTIVITY_SMILES>
C(C(CCl)OP(=O)(O)OC(CCl)CCl)Cl

> <PUBCHEM_CACTVS_TPSA>
55.8

> <PUBCHEM_MONOISOTOPIC_WEIGHT>
317.914907

> <PUBCHEM_TOTAL_CHARGE>
0

> <PUBCHEM_HEAVY_ATOM_COUNT>
15

> <PUBCHEM_ATOM_DEF_STEREO_COUNT>
0

> <PUBCHEM_ATOM_UDEF_STEREO_COUNT>
0

> <PUBCHEM_BOND_DEF_STEREO_COUNT>
0

> <PUBCHEM_BOND_UDEF_STEREO_COUNT>
0

> <PUBCHEM_ISOTOPIC_ATOM_COUNT>
0

> <PUBCHEM_COMPONENT_COUNT>
1

> <PUBCHEM_CACTVS_TAUTO_COUNT>
-1

> <PUBCHEM_COORDINATE_TYPE>
1
5
255

$$$$
