18932
  -OEChem-05122609252D

 29 32  0     0  0  0  0  0  0999 V2000
    3.7321    0.0001    0.0000 C   0  0  0  0  0  0  0  0  0  0  0  0
    3.7321   -0.9999    0.0000 C   0  0  0  0  0  0  0  0  0  0  0  0
    4.6260    0.5348    0.0000 C   0  0  0  0  0  0  0  0  0  0  0  0
    2.8660    0.5001    0.0000 C   0  0  0  0  0  0  0  0  0  0  0  0
    4.6260   -1.5346    0.0000 C   0  0  0  0  0  0  0  0  0  0  0  0
    2.8660   -1.4999    0.0000 C   0  0  0  0  0  0  0  0  0  0  0  0
    4.5882    1.5257    0.0000 C   0  0  0  0  0  0  0  0  0  0  0  0
    2.8648    1.4918    0.0000 C   0  0  0  0  0  0  0  0  0  0  0  0
    5.5321    0.0209    0.0000 C   0  0  0  0  0  0  0  0  0  0  0  0
    2.0000    0.0001    0.0000 C   0  0  0  0  0  0  0  0  0  0  0  0
    3.7168    1.9992    0.0000 C   0  0  0  0  0  0  0  0  0  0  0  0
    5.5321   -1.0207    0.0000 C   0  0  0  0  0  0  0  0  0  0  0  0
    2.0000   -0.9999    0.0000 C   0  0  0  0  0  0  0  0  0  0  0  0
    4.5882   -2.5256    0.0000 C   0  0  0  0  0  0  0  0  0  0  0  0
    2.8648   -2.4916    0.0000 C   0  0  0  0  0  0  0  0  0  0  0  0
    3.7168   -2.9991    0.0000 C   0  0  0  0  0  0  0  0  0  0  0  0
    3.6971    2.9991    0.0000 C   0  0  0  0  0  0  0  0  0  0  0  0
    5.1149    1.8528    0.0000 H   0  0  0  0  0  0  0  0  0  0  0  0
    2.3256    1.7978    0.0000 H   0  0  0  0  0  0  0  0  0  0  0  0
    6.0678    0.3330    0.0000 H   0  0  0  0  0  0  0  0  0  0  0  0
    1.4631    0.3101    0.0000 H   0  0  0  0  0  0  0  0  0  0  0  0
    6.0678   -1.3328    0.0000 H   0  0  0  0  0  0  0  0  0  0  0  0
    1.4631   -1.3099    0.0000 H   0  0  0  0  0  0  0  0  0  0  0  0
    5.1149   -2.8526    0.0000 H   0  0  0  0  0  0  0  0  0  0  0  0
    2.3256   -2.7976    0.0000 H   0  0  0  0  0  0  0  0  0  0  0  0
    3.7046   -3.6189    0.0000 H   0  0  0  0  0  0  0  0  0  0  0  0
    4.3170    3.0113    0.0000 H   0  0  0  0  0  0  0  0  0  0  0  0
    3.6849    3.6189    0.0000 H   0  0  0  0  0  0  0  0  0  0  0  0
    3.0773    2.9868    0.0000 H   0  0  0  0  0  0  0  0  0  0  0  0
  1  2  1  0  0  0  0
  1  3  2  0  0  0  0
  1  4  1  0  0  0  0
  2  5  2  0  0  0  0
  2  6  1  0  0  0  0
  3  7  1  0  0  0  0
  3  9  1  0  0  0  0
  4  8  2  0  0  0  0
  4 10  1  0  0  0  0
  5 12  1  0  0  0  0
  5 14  1  0  0  0  0
  6 13  1  0  0  0  0
  6 15  2  0  0  0  0
  7 11  2  0  0  0  0
  7 18  1  0  0  0  0
  8 11  1  0  0  0  0
  8 19  1  0  0  0  0
  9 12  2  0  0  0  0
  9 20  1  0  0  0  0
 10 13  2  0  0  0  0
 10 21  1  0  0  0  0
 11 17  1  0  0  0  0
 12 22  1  0  0  0  0
 13 23  1  0  0  0  0
 14 16  2  0  0  0  0
 14 24  1  0  0  0  0
 15 16  1  0  0  0  0
 15 25  1  0  0  0  0
 16 26  1  0  0  0  0
 17 27  1  0  0  0  0
 17 28  1  0  0  0  0
 17 29  1  0  0  0  0
M  END
> <PUBCHEM_COMPOUND_CID>
18932

> <PUBCHEM_COMPOUND_CANONICALIZED>
1

> <PUBCHEM_CACTVS_COMPLEXITY>
268

> <PUBCHEM_CACTVS_HBOND_ACCEPTOR>
0

> <PUBCHEM_CACTVS_HBOND_DONOR>
0

> <PUBCHEM_CACTVS_ROTATABLE_BOND>
0

> <PUBCHEM_CACTVS_SUBSKEYS>
AAADccB4AAAAAAAAAAAAAAAAAAAAAAAAAAAwYMGAAAAAAADBVAAAGAAAAAAADACAGAAyAMAAAACAAiBCAAACAAAgAAAIiAAAAIgIICKAERCAIAAggAAIiAcAgMAOwAACAAAQAACAAAQAACAAAAAAAAAAAA==

> <PUBCHEM_IUPAC_OPENEYE_NAME>
2-methylpyrene

> <PUBCHEM_IUPAC_CAS_NAME>
2-methylpyrene

> <PUBCHEM_IUPAC_NAME_MARKUP>
2-methylpyrene

> <PUBCHEM_IUPAC_NAME>
2-methylpyrene

> <PUBCHEM_IUPAC_SYSTEMATIC_NAME>
2-methylpyrene

> <PUBCHEM_IUPAC_TRADITIONAL_NAME>
2-methylpyrene

> <PUBCHEM_IUPAC_INCHI>
InChI=1S/C17H12/c1-11-9-14-7-5-12-3-2-4-13-6-8-15(10-11)17(14)16(12)13/h2-10H,1H3

> <PUBCHEM_IUPAC_INCHIKEY>
VIRFPLJXRDHVEI-UHFFFAOYSA-N

> <PUBCHEM_XLOGP3>
5.2

> <PUBCHEM_EXACT_MASS>
216.093900383

> <PUBCHEM_MOLECULAR_FORMULA>
C17H12

> <PUBCHEM_MOLECULAR_WEIGHT>
216.28

> <PUBCHEM_SMILES>
CC1=CC2=C3C(=C1)C=CC4=CC=CC(=C43)C=C2

> <PUBCHEM_CONNECTIVITY_SMILES>
CC1=CC2=C3C(=C1)C=CC4=CC=CC(=C43)C=C2

> <PUBCHEM_CACTVS_TPSA>
0

> <PUBCHEM_MONOISOTOPIC_WEIGHT>
216.093900383

> <PUBCHEM_TOTAL_CHARGE>
0

> <PUBCHEM_HEAVY_ATOM_COUNT>
17

> <PUBCHEM_ATOM_DEF_STEREO_COUNT>
0

> <PUBCHEM_ATOM_UDEF_STEREO_COUNT>
0

> <PUBCHEM_BOND_DEF_STEREO_COUNT>
0

> <PUBCHEM_BOND_UDEF_STEREO_COUNT>
0

> <PUBCHEM_ISOTOPIC_ATOM_COUNT>
0

> <PUBCHEM_COMPONENT_COUNT>
1

> <PUBCHEM_CACTVS_TAUTO_COUNT>
-1

> <PUBCHEM_COORDINATE_TYPE>
1
5
255

> <PUBCHEM_BONDANNOTATIONS>
1  2  8
1  3  8
1  4  8
10  13  8
14  16  8
15  16  8
2  5  8
2  6  8
3  7  8
3  9  8
4  10  8
4  8  8
5  12  8
5  14  8
6  13  8
6  15  8
7  11  8
8  11  8
9  12  8

$$$$
