18983
  -OEChem-05122609432D

 21 21  0     0  0  0  0  0  0999 V2000
    2.0000    0.7593    0.0000 O   0  0  0  0  0  0  0  0  0  0  0  0
    5.5202    0.7593    0.0000 O   0  0  0  0  0  0  0  0  0  0  0  0
    3.7601    0.4806    0.0000 N   0  0  0  0  0  0  0  0  0  0  0  0
    3.2601    2.0194    0.0000 C   0  0  0  0  0  0  0  0  0  0  0  0
    4.2601    2.0194    0.0000 C   0  0  0  0  0  0  0  0  0  0  0  0
    3.7601   -0.5194    0.0000 C   0  0  0  0  0  0  0  0  0  0  0  0
    2.9511    1.0684    0.0000 C   0  0  0  0  0  0  0  0  0  0  0  0
    4.5691    1.0684    0.0000 C   0  0  0  0  0  0  0  0  0  0  0  0
    2.8941   -1.0194    0.0000 C   0  0  0  0  0  0  0  0  0  0  0  0
    2.8941   -2.0194    0.0000 C   0  0  0  0  0  0  0  0  0  0  0  0
    3.9721   -1.1020    0.0000 H   0  0  0  0  0  0  0  0  0  0  0  0
    4.3707   -0.4118    0.0000 H   0  0  0  0  0  0  0  0  0  0  0  0
    3.3249    2.6360    0.0000 H   0  0  0  0  0  0  0  0  0  0  0  0
    2.6536    2.1483    0.0000 H   0  0  0  0  0  0  0  0  0  0  0  0
    4.8665    2.1483    0.0000 H   0  0  0  0  0  0  0  0  0  0  0  0
    4.1953    2.6360    0.0000 H   0  0  0  0  0  0  0  0  0  0  0  0
    2.6820   -0.4368    0.0000 H   0  0  0  0  0  0  0  0  0  0  0  0
    2.2835   -1.1271    0.0000 H   0  0  0  0  0  0  0  0  0  0  0  0
    2.2741   -2.0194    0.0000 H   0  0  0  0  0  0  0  0  0  0  0  0
    2.8941   -2.6394    0.0000 H   0  0  0  0  0  0  0  0  0  0  0  0
    3.5141   -2.0194    0.0000 H   0  0  0  0  0  0  0  0  0  0  0  0
  1  7  2  0  0  0  0
  2  8  2  0  0  0  0
  3  6  1  0  0  0  0
  3  7  1  0  0  0  0
  3  8  1  0  0  0  0
  4  5  1  0  0  0  0
  4  7  1  0  0  0  0
  4 13  1  0  0  0  0
  4 14  1  0  0  0  0
  5  8  1  0  0  0  0
  5 15  1  0  0  0  0
  5 16  1  0  0  0  0
  6  9  1  0  0  0  0
  6 11  1  0  0  0  0
  6 12  1  0  0  0  0
  9 10  1  0  0  0  0
  9 17  1  0  0  0  0
  9 18  1  0  0  0  0
 10 19  1  0  0  0  0
 10 20  1  0  0  0  0
 10 21  1  0  0  0  0
M  END
> <PUBCHEM_COMPOUND_CID>
18983

> <PUBCHEM_COMPOUND_CANONICALIZED>
1

> <PUBCHEM_CACTVS_COMPLEXITY>
149

> <PUBCHEM_CACTVS_HBOND_ACCEPTOR>
2

> <PUBCHEM_CACTVS_HBOND_DONOR>
0

> <PUBCHEM_CACTVS_ROTATABLE_BOND>
2

> <PUBCHEM_CACTVS_SUBSKEYS>
AAADccBiMAAAAAAAAAAAAAAAAAAAAWAAAAAAAAAAAAAAAAAAAAAAHgAAAAAACADBgAQCAAMAAAAIAAEQEAAAAAAAAAAAAAEIAAAAABAAgAAEAAAABiCAAAAFAAAAAAAAAAAAAAAAAAAAAAAAAAAAAAAAAA==

> <PUBCHEM_IUPAC_OPENEYE_NAME>
1-propylpyrrolidine-2,5-dione

> <PUBCHEM_IUPAC_CAS_NAME>
1-propylpyrrolidine-2,5-dione

> <PUBCHEM_IUPAC_NAME_MARKUP>
1-propylpyrrolidine-2,5-dione

> <PUBCHEM_IUPAC_NAME>
1-propylpyrrolidine-2,5-dione

> <PUBCHEM_IUPAC_SYSTEMATIC_NAME>
1-propylpyrrolidine-2,5-dione

> <PUBCHEM_IUPAC_TRADITIONAL_NAME>
1-propylpyrrolidine-2,5-quinone

> <PUBCHEM_IUPAC_INCHI>
InChI=1S/C7H11NO2/c1-2-5-8-6(9)3-4-7(8)10/h2-5H2,1H3

> <PUBCHEM_IUPAC_INCHIKEY>
BTNMOVUCMBMKNZ-UHFFFAOYSA-N

> <PUBCHEM_XLOGP3_AA>
0

> <PUBCHEM_EXACT_MASS>
141.078978594

> <PUBCHEM_MOLECULAR_FORMULA>
C7H11NO2

> <PUBCHEM_MOLECULAR_WEIGHT>
141.17

> <PUBCHEM_SMILES>
CCCN1C(=O)CCC1=O

> <PUBCHEM_CONNECTIVITY_SMILES>
CCCN1C(=O)CCC1=O

> <PUBCHEM_CACTVS_TPSA>
37.4

> <PUBCHEM_MONOISOTOPIC_WEIGHT>
141.078978594

> <PUBCHEM_TOTAL_CHARGE>
0

> <PUBCHEM_HEAVY_ATOM_COUNT>
10

> <PUBCHEM_ATOM_DEF_STEREO_COUNT>
0

> <PUBCHEM_ATOM_UDEF_STEREO_COUNT>
0

> <PUBCHEM_BOND_DEF_STEREO_COUNT>
0

> <PUBCHEM_BOND_UDEF_STEREO_COUNT>
0

> <PUBCHEM_ISOTOPIC_ATOM_COUNT>
0

> <PUBCHEM_COMPONENT_COUNT>
1

> <PUBCHEM_CACTVS_TAUTO_COUNT>
-1

> <PUBCHEM_COORDINATE_TYPE>
1
5
255

$$$$
