19241
  -OEChem-05122608282D

 29 29  0     0  0  0  0  0  0999 V2000
    3.0000   -0.5000    0.0000 S   0  0  0  0  0  0  0  0  0  0  0  0
    4.0000   -0.5000    0.0000 O   0  0  0  0  0  0  0  0  0  0  0  0
    2.0000   -0.5000    0.0000 O   0  0  0  0  0  0  0  0  0  0  0  0
    3.0000    0.5000    0.0000 N   0  0  0  0  0  0  0  0  0  0  0  0
    3.8660    2.0000    0.0000 C   0  0  0  0  0  0  0  0  0  0  0  0
    3.8660    1.0000    0.0000 C   0  0  0  0  0  0  0  0  0  0  0  0
    4.7321    2.5000    0.0000 C   0  0  0  0  0  0  0  0  0  0  0  0
    3.0000   -1.5000    0.0000 C   0  0  0  0  0  0  0  0  0  0  0  0
    4.7321    3.5000    0.0000 C   0  0  0  0  0  0  0  0  0  0  0  0
    2.1340   -2.0000    0.0000 C   0  0  0  0  0  0  0  0  0  0  0  0
    3.8660   -2.0000    0.0000 C   0  0  0  0  0  0  0  0  0  0  0  0
    2.1340   -3.0000    0.0000 C   0  0  0  0  0  0  0  0  0  0  0  0
    3.8660   -3.0000    0.0000 C   0  0  0  0  0  0  0  0  0  0  0  0
    3.0000   -3.5000    0.0000 C   0  0  0  0  0  0  0  0  0  0  0  0
    3.6540    2.5826    0.0000 H   0  0  0  0  0  0  0  0  0  0  0  0
    3.2554    1.8923    0.0000 H   0  0  0  0  0  0  0  0  0  0  0  0
    4.0781    0.4174    0.0000 H   0  0  0  0  0  0  0  0  0  0  0  0
    4.4766    1.1077    0.0000 H   0  0  0  0  0  0  0  0  0  0  0  0
    4.9441    1.9174    0.0000 H   0  0  0  0  0  0  0  0  0  0  0  0
    5.3426    2.6077    0.0000 H   0  0  0  0  0  0  0  0  0  0  0  0
    2.4631    0.8100    0.0000 H   0  0  0  0  0  0  0  0  0  0  0  0
    5.3521    3.5000    0.0000 H   0  0  0  0  0  0  0  0  0  0  0  0
    4.7321    4.1200    0.0000 H   0  0  0  0  0  0  0  0  0  0  0  0
    4.1121    3.5000    0.0000 H   0  0  0  0  0  0  0  0  0  0  0  0
    1.5970   -1.6900    0.0000 H   0  0  0  0  0  0  0  0  0  0  0  0
    4.4030   -1.6900    0.0000 H   0  0  0  0  0  0  0  0  0  0  0  0
    1.5970   -3.3100    0.0000 H   0  0  0  0  0  0  0  0  0  0  0  0
    4.4030   -3.3100    0.0000 H   0  0  0  0  0  0  0  0  0  0  0  0
    3.0000   -4.1200    0.0000 H   0  0  0  0  0  0  0  0  0  0  0  0
  1  2  2  0  0  0  0
  1  3  2  0  0  0  0
  1  4  1  0  0  0  0
  1  8  1  0  0  0  0
  4  6  1  0  0  0  0
  4 21  1  0  0  0  0
  5  6  1  0  0  0  0
  5  7  1  0  0  0  0
  5 15  1  0  0  0  0
  5 16  1  0  0  0  0
  6 17  1  0  0  0  0
  6 18  1  0  0  0  0
  7  9  1  0  0  0  0
  7 19  1  0  0  0  0
  7 20  1  0  0  0  0
  8 10  2  0  0  0  0
  8 11  1  0  0  0  0
  9 22  1  0  0  0  0
  9 23  1  0  0  0  0
  9 24  1  0  0  0  0
 10 12  1  0  0  0  0
 10 25  1  0  0  0  0
 11 13  2  0  0  0  0
 11 26  1  0  0  0  0
 12 14  2  0  0  0  0
 12 27  1  0  0  0  0
 13 14  1  0  0  0  0
 13 28  1  0  0  0  0
 14 29  1  0  0  0  0
M  END
> <PUBCHEM_COMPOUND_CID>
19241

> <PUBCHEM_COMPOUND_CANONICALIZED>
1

> <PUBCHEM_CACTVS_COMPLEXITY>
237

> <PUBCHEM_CACTVS_HBOND_ACCEPTOR>
3

> <PUBCHEM_CACTVS_HBOND_DONOR>
1

> <PUBCHEM_CACTVS_ROTATABLE_BOND>
5

> <PUBCHEM_CACTVS_SUBSKEYS>
AAADccByMABAAAAAAAAAAAAAAAAAAAAAAAAwAAAAAAAAAAABAAAAHAQQQAAACADBUAQyAYBAAAKAACBCAHBCABAgAAAIiJgAAIgIICKAkRCAIAAgkAAIiAcAAAAAAAAAAAAAAAAAAAAAAAAAAAAAAAAAAA==

> <PUBCHEM_IUPAC_OPENEYE_NAME>
N-butylbenzenesulfonamide

> <PUBCHEM_IUPAC_CAS_NAME>
N-butylbenzenesulfonamide

> <PUBCHEM_IUPAC_NAME_MARKUP>
<I>N</I>-butylbenzenesulfonamide

> <PUBCHEM_IUPAC_NAME>
N-butylbenzenesulfonamide

> <PUBCHEM_IUPAC_SYSTEMATIC_NAME>
N-butylbenzenesulfonamide

> <PUBCHEM_IUPAC_TRADITIONAL_NAME>
N-butylbenzenesulfonamide

> <PUBCHEM_IUPAC_INCHI>
InChI=1S/C10H15NO2S/c1-2-3-9-11-14(12,13)10-7-5-4-6-8-10/h4-8,11H,2-3,9H2,1H3

> <PUBCHEM_IUPAC_INCHIKEY>
IPRJXAGUEGOFGG-UHFFFAOYSA-N

> <PUBCHEM_XLOGP3_AA>
2.1

> <PUBCHEM_EXACT_MASS>
213.08234989

> <PUBCHEM_MOLECULAR_FORMULA>
C10H15NO2S

> <PUBCHEM_MOLECULAR_WEIGHT>
213.30

> <PUBCHEM_SMILES>
CCCCNS(=O)(=O)C1=CC=CC=C1

> <PUBCHEM_CONNECTIVITY_SMILES>
CCCCNS(=O)(=O)C1=CC=CC=C1

> <PUBCHEM_CACTVS_TPSA>
54.6

> <PUBCHEM_MONOISOTOPIC_WEIGHT>
213.08234989

> <PUBCHEM_TOTAL_CHARGE>
0

> <PUBCHEM_HEAVY_ATOM_COUNT>
14

> <PUBCHEM_ATOM_DEF_STEREO_COUNT>
0

> <PUBCHEM_ATOM_UDEF_STEREO_COUNT>
0

> <PUBCHEM_BOND_DEF_STEREO_COUNT>
0

> <PUBCHEM_BOND_UDEF_STEREO_COUNT>
0

> <PUBCHEM_ISOTOPIC_ATOM_COUNT>
0

> <PUBCHEM_COMPONENT_COUNT>
1

> <PUBCHEM_CACTVS_TAUTO_COUNT>
-1

> <PUBCHEM_COORDINATE_TYPE>
1
5
255

> <PUBCHEM_BONDANNOTATIONS>
10  12  8
11  13  8
12  14  8
13  14  8
8  10  8
8  11  8

$$$$
