19283
  -OEChem-05122608102D

 84 84  0     0  0  0  0  0  0999 V2000
   14.9904   -2.5000    0.0000 O   0  0  0  0  0  0  0  0  0  0  0  0
   11.5263   -4.5000    0.0000 O   0  0  0  0  0  0  0  0  0  0  0  0
   13.2583   -2.5000    0.0000 O   0  0  0  0  0  0  0  0  0  0  0  0
   12.3923   -3.0000    0.0000 O   0  0  0  0  0  0  0  0  0  0  0  0
   17.5885    2.0000    0.0000 C   0  0  0  0  0  0  0  0  0  0  0  0
    6.3301   -4.5000    0.0000 C   0  0  0  0  0  0  0  0  0  0  0  0
   16.7224    1.5000    0.0000 C   0  0  0  0  0  0  0  0  0  0  0  0
    7.1962   -4.0000    0.0000 C   0  0  0  0  0  0  0  0  0  0  0  0
   17.5885    3.0000    0.0000 C   0  0  0  0  0  0  0  0  0  0  0  0
    5.4641   -4.0000    0.0000 C   0  0  0  0  0  0  0  0  0  0  0  0
   16.7224    0.5000    0.0000 C   0  0  0  0  0  0  0  0  0  0  0  0
    8.0622   -4.5000    0.0000 C   0  0  0  0  0  0  0  0  0  0  0  0
   18.4545    3.5000    0.0000 C   0  0  0  0  0  0  0  0  0  0  0  0
    4.5981   -4.5000    0.0000 C   0  0  0  0  0  0  0  0  0  0  0  0
   15.8564    0.0000    0.0000 C   0  0  0  0  0  0  0  0  0  0  0  0
    8.9282   -4.0000    0.0000 C   0  0  0  0  0  0  0  0  0  0  0  0
   18.4545    4.5000    0.0000 C   0  0  0  0  0  0  0  0  0  0  0  0
    3.7321   -4.0000    0.0000 C   0  0  0  0  0  0  0  0  0  0  0  0
   15.8564   -1.0000    0.0000 C   0  0  0  0  0  0  0  0  0  0  0  0
    9.7942   -4.5000    0.0000 C   0  0  0  0  0  0  0  0  0  0  0  0
   19.3205    5.0000    0.0000 C   0  0  0  0  0  0  0  0  0  0  0  0
    2.8660   -4.5000    0.0000 C   0  0  0  0  0  0  0  0  0  0  0  0
   14.9904   -1.5000    0.0000 C   0  0  0  0  0  0  0  0  0  0  0  0
   10.6603   -4.0000    0.0000 C   0  0  0  0  0  0  0  0  0  0  0  0
   19.3205    6.0000    0.0000 C   0  0  0  0  0  0  0  0  0  0  0  0
    2.0000   -4.0000    0.0000 C   0  0  0  0  0  0  0  0  0  0  0  0
   14.1244   -3.0000    0.0000 C   0  0  0  0  0  0  0  0  0  0  0  0
   12.3923   -4.0000    0.0000 C   0  0  0  0  0  0  0  0  0  0  0  0
   14.1244   -4.0000    0.0000 C   0  0  0  0  0  0  0  0  0  0  0  0
   13.2583   -4.5000    0.0000 C   0  0  0  0  0  0  0  0  0  0  0  0
   14.9904   -4.5000    0.0000 C   0  0  0  0  0  0  0  0  0  0  0  0
   13.2583   -5.5000    0.0000 C   0  0  0  0  0  0  0  0  0  0  0  0
   14.9904   -5.5000    0.0000 C   0  0  0  0  0  0  0  0  0  0  0  0
   14.1244   -6.0000    0.0000 C   0  0  0  0  0  0  0  0  0  0  0  0
   17.8005    1.4174    0.0000 H   0  0  0  0  0  0  0  0  0  0  0  0
   18.1990    2.1077    0.0000 H   0  0  0  0  0  0  0  0  0  0  0  0
    5.9316   -4.9750    0.0000 H   0  0  0  0  0  0  0  0  0  0  0  0
    6.7287   -4.9750    0.0000 H   0  0  0  0  0  0  0  0  0  0  0  0
   16.5104    2.0826    0.0000 H   0  0  0  0  0  0  0  0  0  0  0  0
   16.1119    1.3923    0.0000 H   0  0  0  0  0  0  0  0  0  0  0  0
    7.5947   -3.5251    0.0000 H   0  0  0  0  0  0  0  0  0  0  0  0
    6.7976   -3.5251    0.0000 H   0  0  0  0  0  0  0  0  0  0  0  0
   17.3764    3.5826    0.0000 H   0  0  0  0  0  0  0  0  0  0  0  0
   16.9779    2.8923    0.0000 H   0  0  0  0  0  0  0  0  0  0  0  0
    5.8626   -3.5251    0.0000 H   0  0  0  0  0  0  0  0  0  0  0  0
    5.0656   -3.5251    0.0000 H   0  0  0  0  0  0  0  0  0  0  0  0
   16.9345   -0.0826    0.0000 H   0  0  0  0  0  0  0  0  0  0  0  0
   17.3330    0.6077    0.0000 H   0  0  0  0  0  0  0  0  0  0  0  0
    7.6637   -4.9750    0.0000 H   0  0  0  0  0  0  0  0  0  0  0  0
    8.4607   -4.9750    0.0000 H   0  0  0  0  0  0  0  0  0  0  0  0
   18.6665    2.9174    0.0000 H   0  0  0  0  0  0  0  0  0  0  0  0
   19.0651    3.6077    0.0000 H   0  0  0  0  0  0  0  0  0  0  0  0
    4.1996   -4.9750    0.0000 H   0  0  0  0  0  0  0  0  0  0  0  0
    4.9966   -4.9750    0.0000 H   0  0  0  0  0  0  0  0  0  0  0  0
   15.6444    0.5826    0.0000 H   0  0  0  0  0  0  0  0  0  0  0  0
   15.2458   -0.1077    0.0000 H   0  0  0  0  0  0  0  0  0  0  0  0
    9.3267   -3.5251    0.0000 H   0  0  0  0  0  0  0  0  0  0  0  0
    8.5297   -3.5251    0.0000 H   0  0  0  0  0  0  0  0  0  0  0  0
   18.2424    5.0826    0.0000 H   0  0  0  0  0  0  0  0  0  0  0  0
   17.8439    4.3923    0.0000 H   0  0  0  0  0  0  0  0  0  0  0  0
    4.1306   -3.5251    0.0000 H   0  0  0  0  0  0  0  0  0  0  0  0
    3.3335   -3.5251    0.0000 H   0  0  0  0  0  0  0  0  0  0  0  0
   16.0685   -1.5826    0.0000 H   0  0  0  0  0  0  0  0  0  0  0  0
   16.4670   -0.8923    0.0000 H   0  0  0  0  0  0  0  0  0  0  0  0
    9.3957   -4.9750    0.0000 H   0  0  0  0  0  0  0  0  0  0  0  0
   10.1928   -4.9750    0.0000 H   0  0  0  0  0  0  0  0  0  0  0  0
   19.5326    4.4174    0.0000 H   0  0  0  0  0  0  0  0  0  0  0  0
   19.9311    5.1077    0.0000 H   0  0  0  0  0  0  0  0  0  0  0  0
    2.4675   -4.9750    0.0000 H   0  0  0  0  0  0  0  0  0  0  0  0
    3.2646   -4.9750    0.0000 H   0  0  0  0  0  0  0  0  0  0  0  0
   14.7783   -0.9174    0.0000 H   0  0  0  0  0  0  0  0  0  0  0  0
   14.3798   -1.6077    0.0000 H   0  0  0  0  0  0  0  0  0  0  0  0
   11.0588   -3.5251    0.0000 H   0  0  0  0  0  0  0  0  0  0  0  0
   10.2617   -3.5251    0.0000 H   0  0  0  0  0  0  0  0  0  0  0  0
   19.9405    6.0000    0.0000 H   0  0  0  0  0  0  0  0  0  0  0  0
   19.3205    6.6200    0.0000 H   0  0  0  0  0  0  0  0  0  0  0  0
   18.7005    6.0000    0.0000 H   0  0  0  0  0  0  0  0  0  0  0  0
    2.3100   -3.4631    0.0000 H   0  0  0  0  0  0  0  0  0  0  0  0
    1.4631   -3.6900    0.0000 H   0  0  0  0  0  0  0  0  0  0  0  0
    1.6900   -4.5369    0.0000 H   0  0  0  0  0  0  0  0  0  0  0  0
   15.5273   -4.1900    0.0000 H   0  0  0  0  0  0  0  0  0  0  0  0
   12.7214   -5.8100    0.0000 H   0  0  0  0  0  0  0  0  0  0  0  0
   15.5273   -5.8100    0.0000 H   0  0  0  0  0  0  0  0  0  0  0  0
   14.1244   -6.6200    0.0000 H   0  0  0  0  0  0  0  0  0  0  0  0
  1 23  1  0  0  0  0
  1 27  1  0  0  0  0
  2 24  1  0  0  0  0
  2 28  1  0  0  0  0
  3 27  2  0  0  0  0
  4 28  2  0  0  0  0
  5  7  1  0  0  0  0
  5  9  1  0  0  0  0
  5 35  1  0  0  0  0
  5 36  1  0  0  0  0
  6  8  1  0  0  0  0
  6 10  1  0  0  0  0
  6 37  1  0  0  0  0
  6 38  1  0  0  0  0
  7 11  1  0  0  0  0
  7 39  1  0  0  0  0
  7 40  1  0  0  0  0
  8 12  1  0  0  0  0
  8 41  1  0  0  0  0
  8 42  1  0  0  0  0
  9 13  1  0  0  0  0
  9 43  1  0  0  0  0
  9 44  1  0  0  0  0
 10 14  1  0  0  0  0
 10 45  1  0  0  0  0
 10 46  1  0  0  0  0
 11 15  1  0  0  0  0
 11 47  1  0  0  0  0
 11 48  1  0  0  0  0
 12 16  1  0  0  0  0
 12 49  1  0  0  0  0
 12 50  1  0  0  0  0
 13 17  1  0  0  0  0
 13 51  1  0  0  0  0
 13 52  1  0  0  0  0
 14 18  1  0  0  0  0
 14 53  1  0  0  0  0
 14 54  1  0  0  0  0
 15 19  1  0  0  0  0
 15 55  1  0  0  0  0
 15 56  1  0  0  0  0
 16 20  1  0  0  0  0
 16 57  1  0  0  0  0
 16 58  1  0  0  0  0
 17 21  1  0  0  0  0
 17 59  1  0  0  0  0
 17 60  1  0  0  0  0
 18 22  1  0  0  0  0
 18 61  1  0  0  0  0
 18 62  1  0  0  0  0
 19 23  1  0  0  0  0
 19 63  1  0  0  0  0
 19 64  1  0  0  0  0
 20 24  1  0  0  0  0
 20 65  1  0  0  0  0
 20 66  1  0  0  0  0
 21 25  1  0  0  0  0
 21 67  1  0  0  0  0
 21 68  1  0  0  0  0
 22 26  1  0  0  0  0
 22 69  1  0  0  0  0
 22 70  1  0  0  0  0
 23 71  1  0  0  0  0
 23 72  1  0  0  0  0
 24 73  1  0  0  0  0
 24 74  1  0  0  0  0
 25 75  1  0  0  0  0
 25 76  1  0  0  0  0
 25 77  1  0  0  0  0
 26 78  1  0  0  0  0
 26 79  1  0  0  0  0
 26 80  1  0  0  0  0
 27 29  1  0  0  0  0
 28 30  1  0  0  0  0
 29 30  1  0  0  0  0
 29 31  2  0  0  0  0
 30 32  2  0  0  0  0
 31 33  1  0  0  0  0
 31 81  1  0  0  0  0
 32 34  1  0  0  0  0
 32 82  1  0  0  0  0
 33 34  2  0  0  0  0
 33 83  1  0  0  0  0
 34 84  1  0  0  0  0
M  END
> <PUBCHEM_COMPOUND_CID>
19283

> <PUBCHEM_COMPOUND_CANONICALIZED>
1

> <PUBCHEM_CACTVS_COMPLEXITY>
446

> <PUBCHEM_CACTVS_HBOND_ACCEPTOR>
4

> <PUBCHEM_CACTVS_HBOND_DONOR>
0

> <PUBCHEM_CACTVS_ROTATABLE_BOND>
24

> <PUBCHEM_CACTVS_SUBSKEYS>
AAADcfB4OAAAAAAAAAAAAAAAAAAAAAAAAAAwAAAAAAAAAAABAAAAGgAAAAAADACgmAIyCIAABACIAiDSCAACAAAkAAAIiAEACMgIJjKANRiCMQAkwAEIqYfLyKCOgAAAAAAQAAAAAAAAACAAAAAAAAAAAA==

> <PUBCHEM_IUPAC_OPENEYE_NAME>
diundecyl benzene-1,2-dicarboxylate

> <PUBCHEM_IUPAC_CAS_NAME>
benzene-1,2-dicarboxylic acid diundecyl ester

> <PUBCHEM_IUPAC_NAME_MARKUP>
diundecyl benzene-1,2-dicarboxylate

> <PUBCHEM_IUPAC_NAME>
diundecyl benzene-1,2-dicarboxylate

> <PUBCHEM_IUPAC_SYSTEMATIC_NAME>
diundecyl benzene-1,2-dicarboxylate

> <PUBCHEM_IUPAC_TRADITIONAL_NAME>
benzene-1,2-dicarboxylic acid diundecyl ester

> <PUBCHEM_IUPAC_INCHI>
InChI=1S/C30H50O4/c1-3-5-7-9-11-13-15-17-21-25-33-29(31)27-23-19-20-24-28(27)30(32)34-26-22-18-16-14-12-10-8-6-4-2/h19-20,23-24H,3-18,21-22,25-26H2,1-2H3

> <PUBCHEM_IUPAC_INCHIKEY>
QQVHEQUEHCEAKS-UHFFFAOYSA-N

> <PUBCHEM_XLOGP3>
12.3

> <PUBCHEM_EXACT_MASS>
474.37091007

> <PUBCHEM_MOLECULAR_FORMULA>
C30H50O4

> <PUBCHEM_MOLECULAR_WEIGHT>
474.7

> <PUBCHEM_SMILES>
CCCCCCCCCCCOC(=O)C1=CC=CC=C1C(=O)OCCCCCCCCCCC

> <PUBCHEM_CONNECTIVITY_SMILES>
CCCCCCCCCCCOC(=O)C1=CC=CC=C1C(=O)OCCCCCCCCCCC

> <PUBCHEM_CACTVS_TPSA>
52.6

> <PUBCHEM_MONOISOTOPIC_WEIGHT>
474.37091007

> <PUBCHEM_TOTAL_CHARGE>
0

> <PUBCHEM_HEAVY_ATOM_COUNT>
34

> <PUBCHEM_ATOM_DEF_STEREO_COUNT>
0

> <PUBCHEM_ATOM_UDEF_STEREO_COUNT>
0

> <PUBCHEM_BOND_DEF_STEREO_COUNT>
0

> <PUBCHEM_BOND_UDEF_STEREO_COUNT>
0

> <PUBCHEM_ISOTOPIC_ATOM_COUNT>
0

> <PUBCHEM_COMPONENT_COUNT>
1

> <PUBCHEM_CACTVS_TAUTO_COUNT>
-1

> <PUBCHEM_COORDINATE_TYPE>
1
5
255

> <PUBCHEM_BONDANNOTATIONS>
29  30  8
29  31  8
30  32  8
31  33  8
32  34  8
33  34  8

$$$$
