194405
  -OEChem-05122609542D

 49 52  0     1  0  0  0  0  0999 V2000
    7.6726   -1.6702    0.0000 O   0  0  0  0  0  0  0  0  0  0  0  0
    5.1346   -2.1746    0.0000 O   0  0  0  0  0  0  0  0  0  0  0  0
    6.4164   -3.9324    0.0000 O   0  0  0  0  0  0  0  0  0  0  0  0
    9.3972   -2.8482    0.0000 O   0  0  0  0  0  0  0  0  0  0  0  0
    6.4103   -0.4123    0.0000 N   0  0  0  0  0  0  0  0  0  0  0  0
    6.4103    1.1972    0.0000 N   0  0  0  0  0  0  0  0  0  0  0  0
    4.5981   -0.6075    0.0000 N   0  0  0  0  0  0  0  0  0  0  0  0
    4.5981    2.3925    0.0000 N   0  0  0  0  0  0  0  0  0  0  0  0
    3.7321    0.8925    0.0000 N   0  0  0  0  0  0  0  0  0  0  0  0
    6.1346   -2.1728    0.0000 C   0  0  1  0  0  0  0  0  0  0  0  0
    6.7210   -1.3628    0.0000 C   0  0  1  0  0  0  0  0  0  0  0  0
    6.7238   -2.9808    0.0000 C   0  0  1  0  0  0  0  0  0  0  0  0
    7.6743   -2.6702    0.0000 C   0  0  1  0  0  0  0  0  0  0  0  0
    8.4843   -3.2566    0.0000 C   0  0  0  0  0  0  0  0  0  0  0  0
    5.4641   -0.1075    0.0000 C   0  0  0  0  0  0  0  0  0  0  0  0
    6.9939    0.3925    0.0000 C   0  0  0  0  0  0  0  0  0  0  0  0
    5.4641    0.8925    0.0000 C   0  0  0  0  0  0  0  0  0  0  0  0
    4.5981    1.3925    0.0000 C   0  0  0  0  0  0  0  0  0  0  0  0
    3.7321   -0.1075    0.0000 C   0  0  0  0  0  0  0  0  0  0  0  0
    5.4641    2.8925    0.0000 C   0  0  0  0  0  0  0  0  0  0  0  0
    3.7321    2.8925    0.0000 C   0  0  0  0  0  0  0  0  0  0  0  0
    2.8660    2.3925    0.0000 C   0  0  0  0  0  0  0  0  0  0  0  0
    3.7321    3.8925    0.0000 C   0  0  0  0  0  0  0  0  0  0  0  0
    5.4641    3.8925    0.0000 C   0  0  0  0  0  0  0  0  0  0  0  0
    2.0000    2.8925    0.0000 C   0  0  0  0  0  0  0  0  0  0  0  0
    2.8660    4.3925    0.0000 C   0  0  0  0  0  0  0  0  0  0  0  0
    2.0000    3.8925    0.0000 C   0  0  0  0  0  0  0  0  0  0  0  0
    6.3301    4.3925    0.0000 C   0  0  0  0  0  0  0  0  0  0  0  0
    5.8541   -2.7257    0.0000 H   0  0  0  0  0  0  0  0  0  0  0  0
    6.1085   -1.2669    0.0000 H   0  0  0  0  0  0  0  0  0  0  0  0
    6.1116   -3.0789    0.0000 H   0  0  0  0  0  0  0  0  0  0  0  0
    8.2262   -2.3877    0.0000 H   0  0  0  0  0  0  0  0  0  0  0  0
    8.0391   -3.6880    0.0000 H   0  0  0  0  0  0  0  0  0  0  0  0
    8.8319   -3.7700    0.0000 H   0  0  0  0  0  0  0  0  0  0  0  0
    4.8255   -2.7120    0.0000 H   0  0  0  0  0  0  0  0  0  0  0  0
    6.8321   -4.3925    0.0000 H   0  0  0  0  0  0  0  0  0  0  0  0
    7.6139    0.3925    0.0000 H   0  0  0  0  0  0  0  0  0  0  0  0
    9.8994   -3.2118    0.0000 H   0  0  0  0  0  0  0  0  0  0  0  0
    3.1951   -0.4175    0.0000 H   0  0  0  0  0  0  0  0  0  0  0  0
    5.6762    2.3098    0.0000 H   0  0  0  0  0  0  0  0  0  0  0  0
    6.0747    3.0001    0.0000 H   0  0  0  0  0  0  0  0  0  0  0  0
    2.8660    1.7725    0.0000 H   0  0  0  0  0  0  0  0  0  0  0  0
    4.2690    4.2025    0.0000 H   0  0  0  0  0  0  0  0  0  0  0  0
    4.9272    4.2025    0.0000 H   0  0  0  0  0  0  0  0  0  0  0  0
    1.4631    2.5825    0.0000 H   0  0  0  0  0  0  0  0  0  0  0  0
    2.8660    5.0125    0.0000 H   0  0  0  0  0  0  0  0  0  0  0  0
    1.4631    4.2025    0.0000 H   0  0  0  0  0  0  0  0  0  0  0  0
    6.8671    4.0825    0.0000 H   0  0  0  0  0  0  0  0  0  0  0  0
    6.3301    5.0125    0.0000 H   0  0  0  0  0  0  0  0  0  0  0  0
  1 11  1  0  0  0  0
  1 13  1  0  0  0  0
 10  2  1  1  0  0  0
  2 35  1  0  0  0  0
 12  3  1  1  0  0  0
  3 36  1  0  0  0  0
  4 14  1  0  0  0  0
  4 38  1  0  0  0  0
 11  5  1  6  0  0  0
  5 15  1  0  0  0  0
  5 16  1  0  0  0  0
  6 16  2  0  0  0  0
  6 17  1  0  0  0  0
  7 15  1  0  0  0  0
  7 19  2  0  0  0  0
  8 18  1  0  0  0  0
  8 20  1  0  0  0  0
  8 21  1  0  0  0  0
  9 18  2  0  0  0  0
  9 19  1  0  0  0  0
 10 11  1  0  0  0  0
 10 12  1  0  0  0  0
 10 29  1  0  0  0  0
 11 30  1  0  0  0  0
 12 13  1  0  0  0  0
 12 31  1  0  0  0  0
 13 14  1  6  0  0  0
 13 32  1  0  0  0  0
 14 33  1  0  0  0  0
 14 34  1  0  0  0  0
 15 17  2  0  0  0  0
 16 37  1  0  0  0  0
 17 18  1  0  0  0  0
 19 39  1  0  0  0  0
 20 24  1  0  0  0  0
 20 40  1  0  0  0  0
 20 41  1  0  0  0  0
 21 22  2  0  0  0  0
 21 23  1  0  0  0  0
 22 25  1  0  0  0  0
 22 42  1  0  0  0  0
 23 26  2  0  0  0  0
 23 43  1  0  0  0  0
 24 28  2  0  0  0  0
 24 44  1  0  0  0  0
 25 27  2  0  0  0  0
 25 45  1  0  0  0  0
 26 27  1  0  0  0  0
 26 46  1  0  0  0  0
 27 47  1  0  0  0  0
 28 48  1  0  0  0  0
 28 49  1  0  0  0  0
M  END
> <PUBCHEM_COMPOUND_CID>
194405

> <PUBCHEM_COMPOUND_CANONICALIZED>
1

> <PUBCHEM_CACTVS_COMPLEXITY>
534

> <PUBCHEM_CACTVS_HBOND_ACCEPTOR>
8

> <PUBCHEM_CACTVS_HBOND_DONOR>
3

> <PUBCHEM_CACTVS_ROTATABLE_BOND>
6

> <PUBCHEM_CACTVS_SUBSKEYS>
AAADceB7uAAAAAAAAAAAAAAAAAAAAWJAAAA8QAAAAAAAAFgB/AAAHgAACAAACBzhlwY18L8MFgCgASZjZACCgC0xEqAJ2CAodJiLeGLA2dGeZAhvgALbyCfwMAIAAAAAAAAAAAAAAAAAAAAAAAAAAAAAAA==

> <PUBCHEM_IUPAC_OPENEYE_NAME>
(2R,3R,4S,5R)-2-[6-(N-allylanilino)purin-9-yl]-5-(hydroxymethyl)tetrahydrofuran-3,4-diol

> <PUBCHEM_IUPAC_CAS_NAME>
(2R,3S,4R,5R)-2-(hydroxymethyl)-5-[6-(N-prop-2-enylanilino)-9-purinyl]oxolane-3,4-diol

> <PUBCHEM_IUPAC_NAME_MARKUP>
(2<I>R</I>,3<I>S</I>,4<I>R</I>,5<I>R</I>)-2-(hydroxymethyl)-5-[6-(<I>N</I>-prop-2-enylanilino)purin-9-yl]oxolane-3,4-diol

> <PUBCHEM_IUPAC_NAME>
(2R,3S,4R,5R)-2-(hydroxymethyl)-5-[6-(N-prop-2-enylanilino)purin-9-yl]oxolane-3,4-diol

> <PUBCHEM_IUPAC_SYSTEMATIC_NAME>
(2R,3S,4R,5R)-2-(hydroxymethyl)-5-[6-[phenyl(prop-2-enyl)amino]purin-9-yl]oxolane-3,4-diol

> <PUBCHEM_IUPAC_TRADITIONAL_NAME>
(2R,3R,4S,5R)-2-[6-(N-allylanilino)purin-9-yl]-5-methylol-tetrahydrofuran-3,4-diol

> <PUBCHEM_IUPAC_INCHI>
InChI=1S/C19H21N5O4/c1-2-8-23(12-6-4-3-5-7-12)17-14-18(21-10-20-17)24(11-22-14)19-16(27)15(26)13(9-25)28-19/h2-7,10-11,13,15-16,19,25-27H,1,8-9H2/t13-,15-,16-,19-/m1/s1

> <PUBCHEM_IUPAC_INCHIKEY>
JKOCKLFBFNXCOT-NVQRDWNXSA-N

> <PUBCHEM_XLOGP3>
2

> <PUBCHEM_EXACT_MASS>
383.15935417

> <PUBCHEM_MOLECULAR_FORMULA>
C19H21N5O4

> <PUBCHEM_MOLECULAR_WEIGHT>
383.4

> <PUBCHEM_SMILES>
C=CCN(C1=CC=CC=C1)C2=NC=NC3=C2N=CN3[C@H]4[C@@H]([C@@H]([C@H](O4)CO)O)O

> <PUBCHEM_CONNECTIVITY_SMILES>
C=CCN(C1=CC=CC=C1)C2=NC=NC3=C2N=CN3C4C(C(C(O4)CO)O)O

> <PUBCHEM_CACTVS_TPSA>
117

> <PUBCHEM_MONOISOTOPIC_WEIGHT>
383.15935417

> <PUBCHEM_TOTAL_CHARGE>
0

> <PUBCHEM_HEAVY_ATOM_COUNT>
28

> <PUBCHEM_ATOM_DEF_STEREO_COUNT>
4

> <PUBCHEM_ATOM_UDEF_STEREO_COUNT>
0

> <PUBCHEM_BOND_DEF_STEREO_COUNT>
0

> <PUBCHEM_BOND_UDEF_STEREO_COUNT>
0

> <PUBCHEM_ISOTOPIC_ATOM_COUNT>
0

> <PUBCHEM_COMPONENT_COUNT>
1

> <PUBCHEM_CACTVS_TAUTO_COUNT>
-1

> <PUBCHEM_COORDINATE_TYPE>
1
5
255

> <PUBCHEM_BONDANNOTATIONS>
13  14  6
15  17  8
17  18  8
10  2  5
21  22  8
21  23  8
22  25  8
23  26  8
25  27  8
26  27  8
12  3  5
11  5  6
5  15  8
5  16  8
6  16  8
6  17  8
7  15  8
7  19  8
9  18  8
9  19  8

$$$$
