19502
  -OEChem-08032615152D

 24 24  0     1  0  0  0  0  0999 V2000
    3.0878    0.4239    0.0000 C   0  0  3  0  0  0  0  0  0  0  0  0
    2.5878   -1.1149    0.0000 C   0  0  3  0  0  0  0  0  0  0  0  0
    2.2788   -0.1639    0.0000 C   0  0  0  0  0  0  0  0  0  0  0  0
    3.8968   -0.1639    0.0000 C   0  0  0  0  0  0  0  0  0  0  0  0
    3.5878   -1.1149    0.0000 C   0  0  0  0  0  0  0  0  0  0  0  0
    3.0878    1.4239    0.0000 C   0  0  0  0  0  0  0  0  0  0  0  0
    2.0000   -1.9239    0.0000 C   0  0  0  0  0  0  0  0  0  0  0  0
    3.9538    1.9239    0.0000 C   0  0  0  0  0  0  0  0  0  0  0  0
    3.6402    0.7054    0.0000 H   0  0  0  0  0  0  0  0  0  0  0  0
    1.9754   -1.0179    0.0000 H   0  0  0  0  0  0  0  0  0  0  0  0
    1.9688    0.3731    0.0000 H   0  0  0  0  0  0  0  0  0  0  0  0
    1.7124   -0.4160    0.0000 H   0  0  0  0  0  0  0  0  0  0  0  0
    4.4632   -0.4160    0.0000 H   0  0  0  0  0  0  0  0  0  0  0  0
    4.2068    0.3731    0.0000 H   0  0  0  0  0  0  0  0  0  0  0  0
    3.5230   -1.7315    0.0000 H   0  0  0  0  0  0  0  0  0  0  0  0
    4.1942   -1.2438    0.0000 H   0  0  0  0  0  0  0  0  0  0  0  0
    2.8757    2.0065    0.0000 H   0  0  0  0  0  0  0  0  0  0  0  0
    2.4772    1.3163    0.0000 H   0  0  0  0  0  0  0  0  0  0  0  0
    1.4984   -1.5595    0.0000 H   0  0  0  0  0  0  0  0  0  0  0  0
    1.6356   -2.4255    0.0000 H   0  0  0  0  0  0  0  0  0  0  0  0
    2.5016   -2.2884    0.0000 H   0  0  0  0  0  0  0  0  0  0  0  0
    4.2638    1.3870    0.0000 H   0  0  0  0  0  0  0  0  0  0  0  0
    4.4908    2.2339    0.0000 H   0  0  0  0  0  0  0  0  0  0  0  0
    3.6438    2.4609    0.0000 H   0  0  0  0  0  0  0  0  0  0  0  0
  1  3  1  0  0  0  0
  1  4  1  0  0  0  0
  1  6  1  0  0  0  0
  1  9  1  0  0  0  0
  2  3  1  0  0  0  0
  2  5  1  0  0  0  0
  2  7  1  0  0  0  0
  2 10  1  0  0  0  0
  3 11  1  0  0  0  0
  3 12  1  0  0  0  0
  4  5  1  0  0  0  0
  4 13  1  0  0  0  0
  4 14  1  0  0  0  0
  5 15  1  0  0  0  0
  5 16  1  0  0  0  0
  6  8  1  0  0  0  0
  6 17  1  0  0  0  0
  6 18  1  0  0  0  0
  7 19  1  0  0  0  0
  7 20  1  0  0  0  0
  7 21  1  0  0  0  0
  8 22  1  0  0  0  0
  8 23  1  0  0  0  0
  8 24  1  0  0  0  0
M  END
> <PUBCHEM_COMPOUND_CID>
19502

> <PUBCHEM_COMPOUND_CANONICALIZED>
1

> <PUBCHEM_CACTVS_COMPLEXITY>
66.4

> <PUBCHEM_CACTVS_HBOND_ACCEPTOR>
0

> <PUBCHEM_CACTVS_HBOND_DONOR>
0

> <PUBCHEM_CACTVS_ROTATABLE_BOND>
1

> <PUBCHEM_CACTVS_SUBSKEYS>
AAADceBwAAAAAAAAAAAAAAAAAAAAAYAAAAAAAAAAAAAAAAAAAAAAGAAAAAAADQCAAAACAAAAAAAAAAAAAAAAAAAAAAAAAAAAAAAAAAIAAAAAAAAAAAAAAAEAgEAOAAAAAAAAAAAAAAAAAAAAAQAAAAAAAA==

> <PUBCHEM_IUPAC_OPENEYE_NAME>
1-ethyl-3-methyl-cyclopentane

> <PUBCHEM_IUPAC_CAS_NAME>
1-ethyl-3-methylcyclopentane

> <PUBCHEM_IUPAC_NAME_MARKUP>
1-ethyl-3-methylcyclopentane

> <PUBCHEM_IUPAC_NAME>
1-ethyl-3-methylcyclopentane

> <PUBCHEM_IUPAC_SYSTEMATIC_NAME>
1-ethyl-3-methyl-cyclopentane

> <PUBCHEM_IUPAC_TRADITIONAL_NAME>
1-ethyl-3-methyl-cyclopentane

> <PUBCHEM_IUPAC_INCHI>
InChI=1S/C8H16/c1-3-8-5-4-7(2)6-8/h7-8H,3-6H2,1-2H3

> <PUBCHEM_IUPAC_INCHIKEY>
PQXAPVOKLYINEI-UHFFFAOYSA-N

> <PUBCHEM_XLOGP3_AA>
3.8

> <PUBCHEM_EXACT_MASS>
112.125200510

> <PUBCHEM_MOLECULAR_FORMULA>
C8H16

> <PUBCHEM_MOLECULAR_WEIGHT>
112.21

> <PUBCHEM_SMILES>
CCC1CCC(C1)C

> <PUBCHEM_CONNECTIVITY_SMILES>
CCC1CCC(C1)C

> <PUBCHEM_CACTVS_TPSA>
0

> <PUBCHEM_MONOISOTOPIC_WEIGHT>
112.125200510

> <PUBCHEM_TOTAL_CHARGE>
0

> <PUBCHEM_HEAVY_ATOM_COUNT>
8

> <PUBCHEM_ATOM_DEF_STEREO_COUNT>
0

> <PUBCHEM_ATOM_UDEF_STEREO_COUNT>
2

> <PUBCHEM_BOND_DEF_STEREO_COUNT>
0

> <PUBCHEM_BOND_UDEF_STEREO_COUNT>
0

> <PUBCHEM_ISOTOPIC_ATOM_COUNT>
0

> <PUBCHEM_COMPONENT_COUNT>
1

> <PUBCHEM_CACTVS_TAUTO_COUNT>
-1

> <PUBCHEM_COORDINATE_TYPE>
1
5
255

> <PUBCHEM_BONDANNOTATIONS>
1  6  3
2  7  3

$$$$
