19800
  -OEChem-05122609362D

 39 38  0     1  0  0  0  0  0999 V2000
    4.5981   -0.6900    0.0000 O   0  0  0  0  0  0  0  0  0  0  0  0
    5.4641    0.8100    0.0000 C   0  0  3  0  0  0  0  0  0  0  0  0
    6.3301    1.3100    0.0000 C   0  0  0  0  0  0  0  0  0  0  0  0
    4.5981    1.3100    0.0000 C   0  0  0  0  0  0  0  0  0  0  0  0
    7.1962    0.8100    0.0000 C   0  0  0  0  0  0  0  0  0  0  0  0
    8.0622    1.3100    0.0000 C   0  0  0  0  0  0  0  0  0  0  0  0
    3.7321    0.8100    0.0000 C   0  0  0  0  0  0  0  0  0  0  0  0
    5.4641   -0.1900    0.0000 C   0  0  0  0  0  0  0  0  0  0  0  0
    8.9282    0.8100    0.0000 C   0  0  0  0  0  0  0  0  0  0  0  0
    2.8660    1.3100    0.0000 C   0  0  0  0  0  0  0  0  0  0  0  0
    9.7942    1.3100    0.0000 C   0  0  0  0  0  0  0  0  0  0  0  0
    2.0000    0.8100    0.0000 C   0  0  0  0  0  0  0  0  0  0  0  0
   10.6603    0.8100    0.0000 C   0  0  0  0  0  0  0  0  0  0  0  0
    5.4641    1.4300    0.0000 H   0  0  0  0  0  0  0  0  0  0  0  0
    6.7287    1.7850    0.0000 H   0  0  0  0  0  0  0  0  0  0  0  0
    5.9316    1.7850    0.0000 H   0  0  0  0  0  0  0  0  0  0  0  0
    4.9966    1.7850    0.0000 H   0  0  0  0  0  0  0  0  0  0  0  0
    4.1996    1.7850    0.0000 H   0  0  0  0  0  0  0  0  0  0  0  0
    6.7976    0.3351    0.0000 H   0  0  0  0  0  0  0  0  0  0  0  0
    7.5947    0.3351    0.0000 H   0  0  0  0  0  0  0  0  0  0  0  0
    8.4607    1.7850    0.0000 H   0  0  0  0  0  0  0  0  0  0  0  0
    7.6637    1.7850    0.0000 H   0  0  0  0  0  0  0  0  0  0  0  0
    3.3335    0.3351    0.0000 H   0  0  0  0  0  0  0  0  0  0  0  0
    4.1306    0.3351    0.0000 H   0  0  0  0  0  0  0  0  0  0  0  0
    5.6762   -0.7726    0.0000 H   0  0  0  0  0  0  0  0  0  0  0  0
    6.0747   -0.0823    0.0000 H   0  0  0  0  0  0  0  0  0  0  0  0
    8.5297    0.3351    0.0000 H   0  0  0  0  0  0  0  0  0  0  0  0
    9.3267    0.3351    0.0000 H   0  0  0  0  0  0  0  0  0  0  0  0
    3.2646    1.7850    0.0000 H   0  0  0  0  0  0  0  0  0  0  0  0
    2.4675    1.7850    0.0000 H   0  0  0  0  0  0  0  0  0  0  0  0
   10.1928    1.7850    0.0000 H   0  0  0  0  0  0  0  0  0  0  0  0
    9.3957    1.7850    0.0000 H   0  0  0  0  0  0  0  0  0  0  0  0
    1.6900    1.3469    0.0000 H   0  0  0  0  0  0  0  0  0  0  0  0
    1.4631    0.5000    0.0000 H   0  0  0  0  0  0  0  0  0  0  0  0
    2.3100    0.2731    0.0000 H   0  0  0  0  0  0  0  0  0  0  0  0
    4.5981   -1.3100    0.0000 H   0  0  0  0  0  0  0  0  0  0  0  0
   10.3503    0.2731    0.0000 H   0  0  0  0  0  0  0  0  0  0  0  0
   11.1972    0.5000    0.0000 H   0  0  0  0  0  0  0  0  0  0  0  0
   10.9703    1.3469    0.0000 H   0  0  0  0  0  0  0  0  0  0  0  0
  1  8  1  0  0  0  0
  1 36  1  0  0  0  0
  2  3  1  0  0  0  0
  2  4  1  0  0  0  0
  2  8  1  0  0  0  0
  2 14  1  0  0  0  0
  3  5  1  0  0  0  0
  3 15  1  0  0  0  0
  3 16  1  0  0  0  0
  4  7  1  0  0  0  0
  4 17  1  0  0  0  0
  4 18  1  0  0  0  0
  5  6  1  0  0  0  0
  5 19  1  0  0  0  0
  5 20  1  0  0  0  0
  6  9  1  0  0  0  0
  6 21  1  0  0  0  0
  6 22  1  0  0  0  0
  7 10  1  0  0  0  0
  7 23  1  0  0  0  0
  7 24  1  0  0  0  0
  8 25  1  0  0  0  0
  8 26  1  0  0  0  0
  9 11  1  0  0  0  0
  9 27  1  0  0  0  0
  9 28  1  0  0  0  0
 10 12  1  0  0  0  0
 10 29  1  0  0  0  0
 10 30  1  0  0  0  0
 11 13  1  0  0  0  0
 11 31  1  0  0  0  0
 11 32  1  0  0  0  0
 12 33  1  0  0  0  0
 12 34  1  0  0  0  0
 12 35  1  0  0  0  0
 13 37  1  0  0  0  0
 13 38  1  0  0  0  0
 13 39  1  0  0  0  0
M  END
> <PUBCHEM_COMPOUND_CID>
19800

> <PUBCHEM_COMPOUND_CANONICALIZED>
1

> <PUBCHEM_CACTVS_COMPLEXITY>
91.1

> <PUBCHEM_CACTVS_HBOND_ACCEPTOR>
1

> <PUBCHEM_CACTVS_HBOND_DONOR>
1

> <PUBCHEM_CACTVS_ROTATABLE_BOND>
9

> <PUBCHEM_CACTVS_SUBSKEYS>
AAADceBwIAAAAAAAAAAAAAAAAAAAAAAAAAAAAAAAAAAAAAAAAAAAGgAACAAADQCggAICAAAAAgAAAAAAAAAAAAAAAAAAAAAAAAAAEAIAAAAAQAAEAAAAAAGAwOAOAAAAAAAAAAAAAAAAAAAAAAAAAAAAAA==

> <PUBCHEM_IUPAC_OPENEYE_NAME>
2-butyloctan-1-ol

> <PUBCHEM_IUPAC_CAS_NAME>
2-butyl-1-octanol

> <PUBCHEM_IUPAC_NAME_MARKUP>
2-butyloctan-1-ol

> <PUBCHEM_IUPAC_NAME>
2-butyloctan-1-ol

> <PUBCHEM_IUPAC_SYSTEMATIC_NAME>
2-butyloctan-1-ol

> <PUBCHEM_IUPAC_TRADITIONAL_NAME>
2-butyloctan-1-ol

> <PUBCHEM_IUPAC_INCHI>
InChI=1S/C12H26O/c1-3-5-7-8-10-12(11-13)9-6-4-2/h12-13H,3-11H2,1-2H3

> <PUBCHEM_IUPAC_INCHIKEY>
XMVBHZBLHNOQON-UHFFFAOYSA-N

> <PUBCHEM_XLOGP3_AA>
4.8

> <PUBCHEM_EXACT_MASS>
186.198365449

> <PUBCHEM_MOLECULAR_FORMULA>
C12H26O

> <PUBCHEM_MOLECULAR_WEIGHT>
186.33

> <PUBCHEM_SMILES>
CCCCCCC(CCCC)CO

> <PUBCHEM_CONNECTIVITY_SMILES>
CCCCCCC(CCCC)CO

> <PUBCHEM_CACTVS_TPSA>
20.2

> <PUBCHEM_MONOISOTOPIC_WEIGHT>
186.198365449

> <PUBCHEM_TOTAL_CHARGE>
0

> <PUBCHEM_HEAVY_ATOM_COUNT>
13

> <PUBCHEM_ATOM_DEF_STEREO_COUNT>
0

> <PUBCHEM_ATOM_UDEF_STEREO_COUNT>
1

> <PUBCHEM_BOND_DEF_STEREO_COUNT>
0

> <PUBCHEM_BOND_UDEF_STEREO_COUNT>
0

> <PUBCHEM_ISOTOPIC_ATOM_COUNT>
0

> <PUBCHEM_COMPONENT_COUNT>
1

> <PUBCHEM_CACTVS_TAUTO_COUNT>
-1

> <PUBCHEM_COORDINATE_TYPE>
1
5
255

> <PUBCHEM_BONDANNOTATIONS>
2  4  3

$$$$
