19817869
  -OEChem-05122608322D

 41 42  0     0  0  0  0  0  0999 V2000
    3.7321    0.6550    0.0000 O   0  0  0  0  0  0  0  0  0  0  0  0
    7.1962    4.6550    0.0000 O   0  0  0  0  0  0  0  0  0  0  0  0
    2.0000    0.6550    0.0000 O   0  0  0  0  0  0  0  0  0  0  0  0
    2.0000   -4.3450    0.0000 O   0  0  0  0  0  0  0  0  0  0  0  0
    3.7321   -4.3450    0.0000 O   0  0  0  0  0  0  0  0  0  0  0  0
    4.5981    2.1550    0.0000 C   0  0  0  0  0  0  0  0  0  0  0  0
    6.3301    3.1550    0.0000 C   0  0  0  0  0  0  0  0  0  0  0  0
    5.4641    1.6550    0.0000 C   0  0  0  0  0  0  0  0  0  0  0  0
    4.5981    3.1550    0.0000 C   0  0  0  0  0  0  0  0  0  0  0  0
    6.3301    2.1550    0.0000 C   0  0  0  0  0  0  0  0  0  0  0  0
    5.4641    3.6550    0.0000 C   0  0  0  0  0  0  0  0  0  0  0  0
    3.7321    1.6550    0.0000 C   0  0  0  0  0  0  0  0  0  0  0  0
    7.1962    3.6550    0.0000 C   0  0  0  0  0  0  0  0  0  0  0  0
    2.8660    0.1550    0.0000 C   0  0  0  0  0  0  0  0  0  0  0  0
    2.8660   -0.8450    0.0000 C   0  0  0  0  0  0  0  0  0  0  0  0
    3.7321   -1.3450    0.0000 C   0  0  0  0  0  0  0  0  0  0  0  0
    2.0000   -1.3450    0.0000 C   0  0  0  0  0  0  0  0  0  0  0  0
    3.7321   -2.3450    0.0000 C   0  0  0  0  0  0  0  0  0  0  0  0
    2.0000   -2.3450    0.0000 C   0  0  0  0  0  0  0  0  0  0  0  0
    2.8660   -2.8450    0.0000 C   0  0  0  0  0  0  0  0  0  0  0  0
    2.8660   -3.8450    0.0000 C   0  0  0  0  0  0  0  0  0  0  0  0
    4.5981    1.5350    0.0000 H   0  0  0  0  0  0  0  0  0  0  0  0
    6.8671    2.8450    0.0000 H   0  0  0  0  0  0  0  0  0  0  0  0
    5.0656    1.1801    0.0000 H   0  0  0  0  0  0  0  0  0  0  0  0
    5.8626    1.1801    0.0000 H   0  0  0  0  0  0  0  0  0  0  0  0
    4.3860    3.7376    0.0000 H   0  0  0  0  0  0  0  0  0  0  0  0
    3.9875    3.0473    0.0000 H   0  0  0  0  0  0  0  0  0  0  0  0
    6.5422    1.5724    0.0000 H   0  0  0  0  0  0  0  0  0  0  0  0
    6.9407    2.2627    0.0000 H   0  0  0  0  0  0  0  0  0  0  0  0
    5.8626    4.1300    0.0000 H   0  0  0  0  0  0  0  0  0  0  0  0
    5.0656    4.1300    0.0000 H   0  0  0  0  0  0  0  0  0  0  0  0
    3.5200    2.2376    0.0000 H   0  0  0  0  0  0  0  0  0  0  0  0
    3.1215    1.5473    0.0000 H   0  0  0  0  0  0  0  0  0  0  0  0
    7.4082    3.0724    0.0000 H   0  0  0  0  0  0  0  0  0  0  0  0
    7.8067    3.7627    0.0000 H   0  0  0  0  0  0  0  0  0  0  0  0
    7.7331    4.9650    0.0000 H   0  0  0  0  0  0  0  0  0  0  0  0
    4.2690   -1.0350    0.0000 H   0  0  0  0  0  0  0  0  0  0  0  0
    1.4631   -1.0350    0.0000 H   0  0  0  0  0  0  0  0  0  0  0  0
    4.2690   -2.6550    0.0000 H   0  0  0  0  0  0  0  0  0  0  0  0
    1.4631   -2.6550    0.0000 H   0  0  0  0  0  0  0  0  0  0  0  0
    2.0000   -4.9650    0.0000 H   0  0  0  0  0  0  0  0  0  0  0  0
  1 12  1  0  0  0  0
  1 14  1  0  0  0  0
  2 13  1  0  0  0  0
  2 36  1  0  0  0  0
  3 14  2  0  0  0  0
  4 21  1  0  0  0  0
  4 41  1  0  0  0  0
  5 21  2  0  0  0  0
  6  8  1  0  0  0  0
  6  9  1  0  0  0  0
  6 12  1  0  0  0  0
  6 22  1  0  0  0  0
  7 10  1  0  0  0  0
  7 11  1  0  0  0  0
  7 13  1  0  0  0  0
  7 23  1  0  0  0  0
  8 10  1  0  0  0  0
  8 24  1  0  0  0  0
  8 25  1  0  0  0  0
  9 11  1  0  0  0  0
  9 26  1  0  0  0  0
  9 27  1  0  0  0  0
 10 28  1  0  0  0  0
 10 29  1  0  0  0  0
 11 30  1  0  0  0  0
 11 31  1  0  0  0  0
 12 32  1  0  0  0  0
 12 33  1  0  0  0  0
 13 34  1  0  0  0  0
 13 35  1  0  0  0  0
 14 15  1  0  0  0  0
 15 16  2  0  0  0  0
 15 17  1  0  0  0  0
 16 18  1  0  0  0  0
 16 37  1  0  0  0  0
 17 19  2  0  0  0  0
 17 38  1  0  0  0  0
 18 20  2  0  0  0  0
 18 39  1  0  0  0  0
 19 20  1  0  0  0  0
 19 40  1  0  0  0  0
 20 21  1  0  0  0  0
M  END
> <PUBCHEM_COMPOUND_CID>
19817869

> <PUBCHEM_COMPOUND_CANONICALIZED>
1

> <PUBCHEM_CACTVS_COMPLEXITY>
352

> <PUBCHEM_CACTVS_HBOND_ACCEPTOR>
5

> <PUBCHEM_CACTVS_HBOND_DONOR>
2

> <PUBCHEM_CACTVS_ROTATABLE_BOND>
6

> <PUBCHEM_CACTVS_SUBSKEYS>
AAADceB4OAAAAAAAAAAAAAAAAAAAAAAAAAAwYAAAAAAAAAABAAAAGgAACAAADQCgmAIwCIAABgCIAiDSCAACAAAkAAAIiAEACMgINjKANRiCcQAkwAEIuYeIyDCOQAAAAAAAAACAAAAAAAAAAAAAAAAAAA==

> <PUBCHEM_IUPAC_OPENEYE_NAME>
4-[[4-(hydroxymethyl)cyclohexyl]methoxycarbonyl]benzoic acid

> <PUBCHEM_IUPAC_CAS_NAME>
4-[[4-(hydroxymethyl)cyclohexyl]methoxy-oxomethyl]benzoic acid

> <PUBCHEM_IUPAC_NAME_MARKUP>
4-[[4-(hydroxymethyl)cyclohexyl]methoxycarbonyl]benzoic acid

> <PUBCHEM_IUPAC_NAME>
4-[[4-(hydroxymethyl)cyclohexyl]methoxycarbonyl]benzoic acid

> <PUBCHEM_IUPAC_SYSTEMATIC_NAME>
4-[[4-(hydroxymethyl)cyclohexyl]methoxycarbonyl]benzoic acid

> <PUBCHEM_IUPAC_TRADITIONAL_NAME>
4-[(4-methylolcyclohexyl)methoxycarbonyl]benzoic acid

> <PUBCHEM_IUPAC_INCHI>
InChI=1S/C16H20O5/c17-9-11-1-3-12(4-2-11)10-21-16(20)14-7-5-13(6-8-14)15(18)19/h5-8,11-12,17H,1-4,9-10H2,(H,18,19)

> <PUBCHEM_IUPAC_INCHIKEY>
TYSXVUCCRMVPMR-UHFFFAOYSA-N

> <PUBCHEM_XLOGP3_AA>
2.3

> <PUBCHEM_EXACT_MASS>
292.13107373

> <PUBCHEM_MOLECULAR_FORMULA>
C16H20O5

> <PUBCHEM_MOLECULAR_WEIGHT>
292.33

> <PUBCHEM_SMILES>
C1CC(CCC1CO)COC(=O)C2=CC=C(C=C2)C(=O)O

> <PUBCHEM_CONNECTIVITY_SMILES>
C1CC(CCC1CO)COC(=O)C2=CC=C(C=C2)C(=O)O

> <PUBCHEM_CACTVS_TPSA>
83.8

> <PUBCHEM_MONOISOTOPIC_WEIGHT>
292.13107373

> <PUBCHEM_TOTAL_CHARGE>
0

> <PUBCHEM_HEAVY_ATOM_COUNT>
21

> <PUBCHEM_ATOM_DEF_STEREO_COUNT>
0

> <PUBCHEM_ATOM_UDEF_STEREO_COUNT>
0

> <PUBCHEM_BOND_DEF_STEREO_COUNT>
0

> <PUBCHEM_BOND_UDEF_STEREO_COUNT>
0

> <PUBCHEM_ISOTOPIC_ATOM_COUNT>
0

> <PUBCHEM_COMPONENT_COUNT>
1

> <PUBCHEM_CACTVS_TAUTO_COUNT>
-1

> <PUBCHEM_COORDINATE_TYPE>
1
5
255

> <PUBCHEM_BONDANNOTATIONS>
15  16  8
15  17  8
16  18  8
17  19  8
18  20  8
19  20  8

$$$$
