20139
  -OEChem-05122609412D

 25 25  0     0  0  0  0  0  0999 V2000
    4.5981    1.9400    0.0000 O   0  0  0  0  0  0  0  0  0  0  0  0
    3.7321    0.4400    0.0000 C   0  0  0  0  0  0  0  0  0  0  0  0
    2.8660   -0.0600    0.0000 C   0  0  0  0  0  0  0  0  0  0  0  0
    4.5981   -0.0600    0.0000 C   0  0  0  0  0  0  0  0  0  0  0  0
    3.7321   -1.5600    0.0000 C   0  0  0  0  0  0  0  0  0  0  0  0
    2.8660   -1.0600    0.0000 C   0  0  0  0  0  0  0  0  0  0  0  0
    4.5981   -1.0600    0.0000 C   0  0  0  0  0  0  0  0  0  0  0  0
    3.7321    1.4400    0.0000 C   0  0  0  0  0  0  0  0  0  0  0  0
    2.0000    0.4400    0.0000 C   0  0  0  0  0  0  0  0  0  0  0  0
    5.4641    0.4400    0.0000 C   0  0  0  0  0  0  0  0  0  0  0  0
    3.7321   -2.5600    0.0000 C   0  0  0  0  0  0  0  0  0  0  0  0
    2.3291   -1.3700    0.0000 H   0  0  0  0  0  0  0  0  0  0  0  0
    5.1350   -1.3700    0.0000 H   0  0  0  0  0  0  0  0  0  0  0  0
    3.5200    2.0226    0.0000 H   0  0  0  0  0  0  0  0  0  0  0  0
    3.1215    1.3323    0.0000 H   0  0  0  0  0  0  0  0  0  0  0  0
    2.3100    0.9769    0.0000 H   0  0  0  0  0  0  0  0  0  0  0  0
    1.4631    0.7500    0.0000 H   0  0  0  0  0  0  0  0  0  0  0  0
    1.6900   -0.0969    0.0000 H   0  0  0  0  0  0  0  0  0  0  0  0
    5.7741   -0.0969    0.0000 H   0  0  0  0  0  0  0  0  0  0  0  0
    6.0010    0.7500    0.0000 H   0  0  0  0  0  0  0  0  0  0  0  0
    5.1541    0.9769    0.0000 H   0  0  0  0  0  0  0  0  0  0  0  0
    3.1121   -2.5600    0.0000 H   0  0  0  0  0  0  0  0  0  0  0  0
    3.7321   -3.1800    0.0000 H   0  0  0  0  0  0  0  0  0  0  0  0
    4.3521   -2.5600    0.0000 H   0  0  0  0  0  0  0  0  0  0  0  0
    4.5981    2.5600    0.0000 H   0  0  0  0  0  0  0  0  0  0  0  0
  1  8  1  0  0  0  0
  1 25  1  0  0  0  0
  2  3  2  0  0  0  0
  2  4  1  0  0  0  0
  2  8  1  0  0  0  0
  3  6  1  0  0  0  0
  3  9  1  0  0  0  0
  4  7  2  0  0  0  0
  4 10  1  0  0  0  0
  5  6  2  0  0  0  0
  5  7  1  0  0  0  0
  5 11  1  0  0  0  0
  6 12  1  0  0  0  0
  7 13  1  0  0  0  0
  8 14  1  0  0  0  0
  8 15  1  0  0  0  0
  9 16  1  0  0  0  0
  9 17  1  0  0  0  0
  9 18  1  0  0  0  0
 10 19  1  0  0  0  0
 10 20  1  0  0  0  0
 10 21  1  0  0  0  0
 11 22  1  0  0  0  0
 11 23  1  0  0  0  0
 11 24  1  0  0  0  0
M  END
> <PUBCHEM_COMPOUND_CID>
20139

> <PUBCHEM_COMPOUND_CANONICALIZED>
1

> <PUBCHEM_CACTVS_COMPLEXITY>
110

> <PUBCHEM_CACTVS_HBOND_ACCEPTOR>
1

> <PUBCHEM_CACTVS_HBOND_DONOR>
1

> <PUBCHEM_CACTVS_ROTATABLE_BOND>
1

> <PUBCHEM_CACTVS_SUBSKEYS>
AAADccBwIAAAAAAAAAAAAAAAAAAAAAAAAAAwAAAAAAAAAAABAAAAGgAACAAADACgmAIyAIAAAgCAAiBCAAACAAAgAAAAiAAACIgINiKAERCAcAAkwAEImAeAwPAOwAACAAAQAACAAAQAACAAAAAAAAAAAA==

> <PUBCHEM_IUPAC_OPENEYE_NAME>
(2,4,6-trimethylphenyl)methanol

> <PUBCHEM_IUPAC_CAS_NAME>
(2,4,6-trimethylphenyl)methanol

> <PUBCHEM_IUPAC_NAME_MARKUP>
(2,4,6-trimethylphenyl)methanol

> <PUBCHEM_IUPAC_NAME>
(2,4,6-trimethylphenyl)methanol

> <PUBCHEM_IUPAC_SYSTEMATIC_NAME>
(2,4,6-trimethylphenyl)methanol

> <PUBCHEM_IUPAC_TRADITIONAL_NAME>
mesitylmethanol

> <PUBCHEM_IUPAC_INCHI>
InChI=1S/C10H14O/c1-7-4-8(2)10(6-11)9(3)5-7/h4-5,11H,6H2,1-3H3

> <PUBCHEM_IUPAC_INCHIKEY>
LODDFDHPSIYCTK-UHFFFAOYSA-N

> <PUBCHEM_XLOGP3_AA>
2.1

> <PUBCHEM_EXACT_MASS>
150.104465066

> <PUBCHEM_MOLECULAR_FORMULA>
C10H14O

> <PUBCHEM_MOLECULAR_WEIGHT>
150.22

> <PUBCHEM_SMILES>
CC1=CC(=C(C(=C1)C)CO)C

> <PUBCHEM_CONNECTIVITY_SMILES>
CC1=CC(=C(C(=C1)C)CO)C

> <PUBCHEM_CACTVS_TPSA>
20.2

> <PUBCHEM_MONOISOTOPIC_WEIGHT>
150.104465066

> <PUBCHEM_TOTAL_CHARGE>
0

> <PUBCHEM_HEAVY_ATOM_COUNT>
11

> <PUBCHEM_ATOM_DEF_STEREO_COUNT>
0

> <PUBCHEM_ATOM_UDEF_STEREO_COUNT>
0

> <PUBCHEM_BOND_DEF_STEREO_COUNT>
0

> <PUBCHEM_BOND_UDEF_STEREO_COUNT>
0

> <PUBCHEM_ISOTOPIC_ATOM_COUNT>
0

> <PUBCHEM_COMPONENT_COUNT>
1

> <PUBCHEM_CACTVS_TAUTO_COUNT>
-1

> <PUBCHEM_COORDINATE_TYPE>
1
5
255

> <PUBCHEM_BONDANNOTATIONS>
2  3  8
2  4  8
3  6  8
4  7  8
5  6  8
5  7  8

$$$$
