20191209
  -OEChem-05122609252D

 44 47  0     0  0  0  0  0  0999 V2000
    5.4641    0.9647    0.0000 P   0  0  0  0  0  0  0  0  0  0  0  0
    6.3301    0.4647    0.0000 O   0  0  0  0  0  0  0  0  0  0  0  0
    4.5981    1.4647    0.0000 O   0  0  0  0  0  0  0  0  0  0  0  0
    4.9641    0.0987    0.0000 O   0  0  0  0  0  0  0  0  0  0  0  0
    5.9641    1.8308    0.0000 O   0  0  0  0  0  0  0  0  0  0  0  0
    8.9282    0.9647    0.0000 C   0  0  0  0  0  0  0  0  0  0  0  0
    8.9282    1.9647    0.0000 C   0  0  0  0  0  0  0  0  0  0  0  0
    7.1962    0.9647    0.0000 C   0  0  0  0  0  0  0  0  0  0  0  0
    8.0622    0.4647    0.0000 C   0  0  0  0  0  0  0  0  0  0  0  0
    8.0622    2.4647    0.0000 C   0  0  0  0  0  0  0  0  0  0  0  0
    7.1962    1.9647    0.0000 C   0  0  0  0  0  0  0  0  0  0  0  0
    9.8222    0.4301    0.0000 C   0  0  0  0  0  0  0  0  0  0  0  0
    9.8222    2.4994    0.0000 C   0  0  0  0  0  0  0  0  0  0  0  0
   10.7282    0.9439    0.0000 C   0  0  0  0  0  0  0  0  0  0  0  0
   10.7282    1.9855    0.0000 C   0  0  0  0  0  0  0  0  0  0  0  0
    3.7321    0.9647    0.0000 C   0  0  0  0  0  0  0  0  0  0  0  0
    5.4641   -0.7673    0.0000 C   0  0  0  0  0  0  0  0  0  0  0  0
    2.8660    1.4647    0.0000 C   0  0  0  0  0  0  0  0  0  0  0  0
    6.4641   -0.7673    0.0000 C   0  0  0  0  0  0  0  0  0  0  0  0
    3.7321   -0.0353    0.0000 C   0  0  0  0  0  0  0  0  0  0  0  0
    4.9641   -1.6334    0.0000 C   0  0  0  0  0  0  0  0  0  0  0  0
    2.0000    0.9647    0.0000 C   0  0  0  0  0  0  0  0  0  0  0  0
    6.9641   -1.6334    0.0000 C   0  0  0  0  0  0  0  0  0  0  0  0
    2.8660   -0.5353    0.0000 C   0  0  0  0  0  0  0  0  0  0  0  0
    5.4641   -2.4994    0.0000 C   0  0  0  0  0  0  0  0  0  0  0  0
    2.0000   -0.0353    0.0000 C   0  0  0  0  0  0  0  0  0  0  0  0
    6.4641   -2.4994    0.0000 C   0  0  0  0  0  0  0  0  0  0  0  0
    8.0622   -0.1553    0.0000 H   0  0  0  0  0  0  0  0  0  0  0  0
    8.0622    3.0847    0.0000 H   0  0  0  0  0  0  0  0  0  0  0  0
    6.6592    2.2747    0.0000 H   0  0  0  0  0  0  0  0  0  0  0  0
    9.8150   -0.1899    0.0000 H   0  0  0  0  0  0  0  0  0  0  0  0
    9.8150    3.1193    0.0000 H   0  0  0  0  0  0  0  0  0  0  0  0
   11.2639    0.6318    0.0000 H   0  0  0  0  0  0  0  0  0  0  0  0
   11.2639    2.2976    0.0000 H   0  0  0  0  0  0  0  0  0  0  0  0
    2.8660    2.0847    0.0000 H   0  0  0  0  0  0  0  0  0  0  0  0
    6.7741   -0.2304    0.0000 H   0  0  0  0  0  0  0  0  0  0  0  0
    4.2690   -0.3453    0.0000 H   0  0  0  0  0  0  0  0  0  0  0  0
    4.3441   -1.6334    0.0000 H   0  0  0  0  0  0  0  0  0  0  0  0
    1.4631    1.2747    0.0000 H   0  0  0  0  0  0  0  0  0  0  0  0
    7.5841   -1.6334    0.0000 H   0  0  0  0  0  0  0  0  0  0  0  0
    2.8660   -1.1553    0.0000 H   0  0  0  0  0  0  0  0  0  0  0  0
    5.1541   -3.0363    0.0000 H   0  0  0  0  0  0  0  0  0  0  0  0
    1.4631   -0.3453    0.0000 H   0  0  0  0  0  0  0  0  0  0  0  0
    6.7741   -3.0363    0.0000 H   0  0  0  0  0  0  0  0  0  0  0  0
  1  2  1  0  0  0  0
  1  3  1  0  0  0  0
  1  4  1  0  0  0  0
  1  5  2  0  0  0  0
  2  8  1  0  0  0  0
  3 16  1  0  0  0  0
  4 17  1  0  0  0  0
  6  7  1  0  0  0  0
  6  9  1  0  0  0  0
  6 12  2  0  0  0  0
  7 10  1  0  0  0  0
  7 13  2  0  0  0  0
  8  9  2  0  0  0  0
  8 11  1  0  0  0  0
  9 28  1  0  0  0  0
 10 11  2  0  0  0  0
 10 29  1  0  0  0  0
 11 30  1  0  0  0  0
 12 14  1  0  0  0  0
 12 31  1  0  0  0  0
 13 15  1  0  0  0  0
 13 32  1  0  0  0  0
 14 15  2  0  0  0  0
 14 33  1  0  0  0  0
 15 34  1  0  0  0  0
 16 18  2  0  0  0  0
 16 20  1  0  0  0  0
 17 19  2  0  0  0  0
 17 21  1  0  0  0  0
 18 22  1  0  0  0  0
 18 35  1  0  0  0  0
 19 23  1  0  0  0  0
 19 36  1  0  0  0  0
 20 24  2  0  0  0  0
 20 37  1  0  0  0  0
 21 25  2  0  0  0  0
 21 38  1  0  0  0  0
 22 26  2  0  0  0  0
 22 39  1  0  0  0  0
 23 27  2  0  0  0  0
 23 40  1  0  0  0  0
 24 26  1  0  0  0  0
 24 41  1  0  0  0  0
 25 27  1  0  0  0  0
 25 42  1  0  0  0  0
 26 43  1  0  0  0  0
 27 44  1  0  0  0  0
M  END
> <PUBCHEM_COMPOUND_CID>
20191209

> <PUBCHEM_COMPOUND_CANONICALIZED>
1

> <PUBCHEM_CACTVS_COMPLEXITY>
475

> <PUBCHEM_CACTVS_HBOND_ACCEPTOR>
4

> <PUBCHEM_CACTVS_HBOND_DONOR>
0

> <PUBCHEM_CACTVS_ROTATABLE_BOND>
6

> <PUBCHEM_CACTVS_SUBSKEYS>
AAADceB4OAIAAAAAAAAAAAAAAAAAAAAAAAAwYMGAAAAAAADBVAAAGgAAACAADASAmAAwBsAAARCAQiBCAIACAAAgIAAIiAAGCIgIJiKAERKAMAAkwBEIiAeAwLAOoAABAAAQAABAAAIAACAAAAAAAAAAAA==

> <PUBCHEM_IUPAC_OPENEYE_NAME>
2-naphthyl diphenyl phosphate

> <PUBCHEM_IUPAC_CAS_NAME>
phosphoric acid 2-naphthalenyl diphenyl ester

> <PUBCHEM_IUPAC_NAME_MARKUP>
naphthalen-2-yl diphenyl phosphate

> <PUBCHEM_IUPAC_NAME>
naphthalen-2-yl diphenyl phosphate

> <PUBCHEM_IUPAC_SYSTEMATIC_NAME>
naphthalen-2-yl diphenyl phosphate

> <PUBCHEM_IUPAC_TRADITIONAL_NAME>
phosphoric acid 2-naphthyl diphenyl ester

> <PUBCHEM_IUPAC_INCHI>
InChI=1S/C22H17O4P/c23-27(24-20-11-3-1-4-12-20,25-21-13-5-2-6-14-21)26-22-16-15-18-9-7-8-10-19(18)17-22/h1-17H

> <PUBCHEM_IUPAC_INCHIKEY>
JSJUBNHZCFKUKY-UHFFFAOYSA-N

> <PUBCHEM_XLOGP3>
6.5

> <PUBCHEM_EXACT_MASS>
376.08644602

> <PUBCHEM_MOLECULAR_FORMULA>
C22H17O4P

> <PUBCHEM_MOLECULAR_WEIGHT>
376.3

> <PUBCHEM_SMILES>
C1=CC=C(C=C1)OP(=O)(OC2=CC=CC=C2)OC3=CC4=CC=CC=C4C=C3

> <PUBCHEM_CONNECTIVITY_SMILES>
C1=CC=C(C=C1)OP(=O)(OC2=CC=CC=C2)OC3=CC4=CC=CC=C4C=C3

> <PUBCHEM_CACTVS_TPSA>
44.8

> <PUBCHEM_MONOISOTOPIC_WEIGHT>
376.08644602

> <PUBCHEM_TOTAL_CHARGE>
0

> <PUBCHEM_HEAVY_ATOM_COUNT>
27

> <PUBCHEM_ATOM_DEF_STEREO_COUNT>
0

> <PUBCHEM_ATOM_UDEF_STEREO_COUNT>
0

> <PUBCHEM_BOND_DEF_STEREO_COUNT>
0

> <PUBCHEM_BOND_UDEF_STEREO_COUNT>
0

> <PUBCHEM_ISOTOPIC_ATOM_COUNT>
0

> <PUBCHEM_COMPONENT_COUNT>
1

> <PUBCHEM_CACTVS_TAUTO_COUNT>
-1

> <PUBCHEM_COORDINATE_TYPE>
1
5
255

> <PUBCHEM_BONDANNOTATIONS>
10  11  8
12  14  8
13  15  8
14  15  8
16  18  8
16  20  8
17  19  8
17  21  8
18  22  8
19  23  8
20  24  8
21  25  8
22  26  8
23  27  8
24  26  8
25  27  8
6  12  8
6  7  8
6  9  8
7  10  8
7  13  8
8  11  8
8  9  8

$$$$
