20434
  -OEChem-05122609492D

 23 23  0     0  0  0  0  0  0999 V2000
    3.6180   -0.6796    0.0000 O   0  0  0  0  0  0  0  0  0  0  0  0
    2.0000   -0.6796    0.0000 O   0  0  0  0  0  0  0  0  0  0  0  0
    2.8090   -0.0919    0.0000 C   0  0  0  0  0  0  0  0  0  0  0  0
    3.3968    0.7172    0.0000 C   0  0  0  0  0  0  0  0  0  0  0  0
    2.2212    0.7172    0.0000 C   0  0  0  0  0  0  0  0  0  0  0  0
    3.3090   -1.6307    0.0000 C   0  0  0  0  0  0  0  0  0  0  0  0
    2.3090   -1.6307    0.0000 C   0  0  0  0  0  0  0  0  0  0  0  0
    4.3913    0.6126    0.0000 C   0  0  0  0  0  0  0  0  0  0  0  0
    2.9901    1.6307    0.0000 C   0  0  0  0  0  0  0  0  0  0  0  0
    2.7802    0.7820    0.0000 H   0  0  0  0  0  0  0  0  0  0  0  0
    2.7228    1.0816    0.0000 H   0  0  0  0  0  0  0  0  0  0  0  0
    1.8568    1.2188    0.0000 H   0  0  0  0  0  0  0  0  0  0  0  0
    1.7196    0.3527    0.0000 H   0  0  0  0  0  0  0  0  0  0  0  0
    3.2442   -2.2473    0.0000 H   0  0  0  0  0  0  0  0  0  0  0  0
    3.9155   -1.7596    0.0000 H   0  0  0  0  0  0  0  0  0  0  0  0
    1.7026   -1.7596    0.0000 H   0  0  0  0  0  0  0  0  0  0  0  0
    2.3738   -2.2473    0.0000 H   0  0  0  0  0  0  0  0  0  0  0  0
    4.3265   -0.0040    0.0000 H   0  0  0  0  0  0  0  0  0  0  0  0
    5.0079    0.5478    0.0000 H   0  0  0  0  0  0  0  0  0  0  0  0
    4.4561    1.2292    0.0000 H   0  0  0  0  0  0  0  0  0  0  0  0
    3.5565    1.8829    0.0000 H   0  0  0  0  0  0  0  0  0  0  0  0
    2.7379    2.1971    0.0000 H   0  0  0  0  0  0  0  0  0  0  0  0
    2.4237    1.3785    0.0000 H   0  0  0  0  0  0  0  0  0  0  0  0
  1  3  1  0  0  0  0
  1  6  1  0  0  0  0
  2  3  1  0  0  0  0
  2  7  1  0  0  0  0
  3  4  1  0  0  0  0
  3  5  1  0  0  0  0
  4  8  1  0  0  0  0
  4  9  1  0  0  0  0
  4 10  1  0  0  0  0
  5 11  1  0  0  0  0
  5 12  1  0  0  0  0
  5 13  1  0  0  0  0
  6  7  1  0  0  0  0
  6 14  1  0  0  0  0
  6 15  1  0  0  0  0
  7 16  1  0  0  0  0
  7 17  1  0  0  0  0
  8 18  1  0  0  0  0
  8 19  1  0  0  0  0
  8 20  1  0  0  0  0
  9 21  1  0  0  0  0
  9 22  1  0  0  0  0
  9 23  1  0  0  0  0
M  END
> <PUBCHEM_COMPOUND_CID>
20434

> <PUBCHEM_COMPOUND_CANONICALIZED>
1

> <PUBCHEM_CACTVS_COMPLEXITY>
93.1

> <PUBCHEM_CACTVS_HBOND_ACCEPTOR>
2

> <PUBCHEM_CACTVS_HBOND_DONOR>
0

> <PUBCHEM_CACTVS_ROTATABLE_BOND>
1

> <PUBCHEM_CACTVS_SUBSKEYS>
AAADccBgMAAAAAAAAAAAAAAAAAAAASAAAAAAAAAAAAAAAAAAAAAAGgAAAAAADQSggAICCAAABAAAAAAAAAAAAAAAAAAAAAAAAAARAAAAAAAiAAAAAAAGAAAAAAAIAAAAAAAAAAAAAAAAAAAAAAAAAAAAAA==

> <PUBCHEM_IUPAC_OPENEYE_NAME>
2-isopropyl-2-methyl-1,3-dioxolane

> <PUBCHEM_IUPAC_CAS_NAME>
2-methyl-2-propan-2-yl-1,3-dioxolane

> <PUBCHEM_IUPAC_NAME_MARKUP>
2-methyl-2-propan-2-yl-1,3-dioxolane

> <PUBCHEM_IUPAC_NAME>
2-methyl-2-propan-2-yl-1,3-dioxolane

> <PUBCHEM_IUPAC_SYSTEMATIC_NAME>
2-methyl-2-propan-2-yl-1,3-dioxolane

> <PUBCHEM_IUPAC_TRADITIONAL_NAME>
2-isopropyl-2-methyl-1,3-dioxolane

> <PUBCHEM_IUPAC_INCHI>
InChI=1S/C7H14O2/c1-6(2)7(3)8-4-5-9-7/h6H,4-5H2,1-3H3

> <PUBCHEM_IUPAC_INCHIKEY>
IGZQZZODNMBJLU-UHFFFAOYSA-N

> <PUBCHEM_XLOGP3>
1.4

> <PUBCHEM_EXACT_MASS>
130.099379685

> <PUBCHEM_MOLECULAR_FORMULA>
C7H14O2

> <PUBCHEM_MOLECULAR_WEIGHT>
130.18

> <PUBCHEM_SMILES>
CC(C)C1(OCCO1)C

> <PUBCHEM_CONNECTIVITY_SMILES>
CC(C)C1(OCCO1)C

> <PUBCHEM_CACTVS_TPSA>
18.5

> <PUBCHEM_MONOISOTOPIC_WEIGHT>
130.099379685

> <PUBCHEM_TOTAL_CHARGE>
0

> <PUBCHEM_HEAVY_ATOM_COUNT>
9

> <PUBCHEM_ATOM_DEF_STEREO_COUNT>
0

> <PUBCHEM_ATOM_UDEF_STEREO_COUNT>
0

> <PUBCHEM_BOND_DEF_STEREO_COUNT>
0

> <PUBCHEM_BOND_UDEF_STEREO_COUNT>
0

> <PUBCHEM_ISOTOPIC_ATOM_COUNT>
0

> <PUBCHEM_COMPONENT_COUNT>
1

> <PUBCHEM_CACTVS_TAUTO_COUNT>
-1

> <PUBCHEM_COORDINATE_TYPE>
1
5
255

$$$$
