20477
  -OEChem-05122610002D

 41 43  0     0  0  0  0  0  0999 V2000
    5.8911    2.6336    0.0000 O   0  0  0  0  0  0  0  0  0  0  0  0
    2.3644    0.5974    0.0000 O   0  0  0  0  0  0  0  0  0  0  0  0
    7.2924    1.6155    0.0000 O   0  0  0  0  0  0  0  0  0  0  0  0
    3.7657    1.6155    0.0000 O   0  0  0  0  0  0  0  0  0  0  0  0
    5.5290   -0.8116    0.0000 C   0  0  0  0  0  0  0  0  0  0  0  0
    6.3381   -1.3994    0.0000 C   0  0  0  0  0  0  0  0  0  0  0  0
    4.7200   -1.3994    0.0000 C   0  0  0  0  0  0  0  0  0  0  0  0
    6.1168   -0.0026    0.0000 C   0  0  0  0  0  0  0  0  0  0  0  0
    4.9413   -0.0026    0.0000 C   0  0  0  0  0  0  0  0  0  0  0  0
    6.0290   -2.3504    0.0000 C   0  0  0  0  0  0  0  0  0  0  0  0
    5.0290   -2.3504    0.0000 C   0  0  0  0  0  0  0  0  0  0  0  0
    5.7101    0.9110    0.0000 C   0  0  0  0  0  0  0  0  0  0  0  0
    3.9467   -0.1071    0.0000 C   0  0  0  0  0  0  0  0  0  0  0  0
    7.3535   -1.1671    0.0000 C   0  0  0  0  0  0  0  0  0  0  0  0
    3.7046   -1.1671    0.0000 C   0  0  0  0  0  0  0  0  0  0  0  0
    6.7140   -3.1352    0.0000 C   0  0  0  0  0  0  0  0  0  0  0  0
    4.3441   -3.1352    0.0000 C   0  0  0  0  0  0  0  0  0  0  0  0
    8.0564   -1.9358    0.0000 C   0  0  0  0  0  0  0  0  0  0  0  0
    3.0017   -1.9358    0.0000 C   0  0  0  0  0  0  0  0  0  0  0  0
    7.7345   -2.9264    0.0000 C   0  0  0  0  0  0  0  0  0  0  0  0
    3.3236   -2.9264    0.0000 C   0  0  0  0  0  0  0  0  0  0  0  0
    6.2979    1.7200    0.0000 C   0  0  0  0  0  0  0  0  0  0  0  0
    3.3590    0.7019    0.0000 C   0  0  0  0  0  0  0  0  0  0  0  0
    6.5475   -0.4485    0.0000 H   0  0  0  0  0  0  0  0  0  0  0  0
    6.6308    0.3441    0.0000 H   0  0  0  0  0  0  0  0  0  0  0  0
    5.4985    0.2692    0.0000 H   0  0  0  0  0  0  0  0  0  0  0  0
    4.7704    0.5934    0.0000 H   0  0  0  0  0  0  0  0  0  0  0  0
    5.2794    1.3570    0.0000 H   0  0  0  0  0  0  0  0  0  0  0  0
    5.1961    0.5643    0.0000 H   0  0  0  0  0  0  0  0  0  0  0  0
    3.3895   -0.3789    0.0000 H   0  0  0  0  0  0  0  0  0  0  0  0
    4.1176   -0.7031    0.0000 H   0  0  0  0  0  0  0  0  0  0  0  0
    7.5382   -0.5753    0.0000 H   0  0  0  0  0  0  0  0  0  0  0  0
    3.5199   -0.5753    0.0000 H   0  0  0  0  0  0  0  0  0  0  0  0
    6.5156   -3.7226    0.0000 H   0  0  0  0  0  0  0  0  0  0  0  0
    4.5425   -3.7226    0.0000 H   0  0  0  0  0  0  0  0  0  0  0  0
    8.6624   -1.8046    0.0000 H   0  0  0  0  0  0  0  0  0  0  0  0
    2.3957   -1.8046    0.0000 H   0  0  0  0  0  0  0  0  0  0  0  0
    8.1476   -3.3888    0.0000 H   0  0  0  0  0  0  0  0  0  0  0  0
    2.9105   -3.3888    0.0000 H   0  0  0  0  0  0  0  0  0  0  0  0
    6.2556    3.1352    0.0000 H   0  0  0  0  0  0  0  0  0  0  0  0
    2.0000    1.0990    0.0000 H   0  0  0  0  0  0  0  0  0  0  0  0
  1 22  1  0  0  0  0
  1 40  1  0  0  0  0
  2 23  1  0  0  0  0
  2 41  1  0  0  0  0
  3 22  2  0  0  0  0
  4 23  2  0  0  0  0
  5  6  1  0  0  0  0
  5  7  1  0  0  0  0
  5  8  1  0  0  0  0
  5  9  1  0  0  0  0
  6 10  1  0  0  0  0
  6 14  2  0  0  0  0
  7 11  1  0  0  0  0
  7 15  2  0  0  0  0
  8 12  1  0  0  0  0
  8 24  1  0  0  0  0
  8 25  1  0  0  0  0
  9 13  1  0  0  0  0
  9 26  1  0  0  0  0
  9 27  1  0  0  0  0
 10 11  1  0  0  0  0
 10 16  2  0  0  0  0
 11 17  2  0  0  0  0
 12 22  1  0  0  0  0
 12 28  1  0  0  0  0
 12 29  1  0  0  0  0
 13 23  1  0  0  0  0
 13 30  1  0  0  0  0
 13 31  1  0  0  0  0
 14 18  1  0  0  0  0
 14 32  1  0  0  0  0
 15 19  1  0  0  0  0
 15 33  1  0  0  0  0
 16 20  1  0  0  0  0
 16 34  1  0  0  0  0
 17 21  1  0  0  0  0
 17 35  1  0  0  0  0
 18 20  2  0  0  0  0
 18 36  1  0  0  0  0
 19 21  2  0  0  0  0
 19 37  1  0  0  0  0
 20 38  1  0  0  0  0
 21 39  1  0  0  0  0
M  END
> <PUBCHEM_COMPOUND_CID>
20477

> <PUBCHEM_COMPOUND_CANONICALIZED>
1

> <PUBCHEM_CACTVS_COMPLEXITY>
416

> <PUBCHEM_CACTVS_HBOND_ACCEPTOR>
4

> <PUBCHEM_CACTVS_HBOND_DONOR>
2

> <PUBCHEM_CACTVS_ROTATABLE_BOND>
6

> <PUBCHEM_CACTVS_SUBSKEYS>
AAADceB4OAAAAAAAAAAAAAAAAAAAAYAAAAAwYAAAAAAAAGABQAAAGgAACAAADgCAmAAwCIAAAgCIAiDSCAACAAAgAAAIiAEAAIgIIDKAERCAYAAkgAAIiAeIyPCPgAAAAAAQAAAAAAAAACAAAQAACAAAAA==

> <PUBCHEM_IUPAC_OPENEYE_NAME>
3-[9-(2-carboxyethyl)fluoren-9-yl]propanoic acid

> <PUBCHEM_IUPAC_CAS_NAME>
3-[9-(2-carboxyethyl)-9-fluorenyl]propanoic acid

> <PUBCHEM_IUPAC_NAME_MARKUP>
3-[9-(2-carboxyethyl)fluoren-9-yl]propanoic acid

> <PUBCHEM_IUPAC_NAME>
3-[9-(2-carboxyethyl)fluoren-9-yl]propanoic acid

> <PUBCHEM_IUPAC_SYSTEMATIC_NAME>
3-[9-(3-hydroxy-3-oxopropyl)fluoren-9-yl]propanoic acid

> <PUBCHEM_IUPAC_TRADITIONAL_NAME>
3-[9-(2-carboxyethyl)fluoren-9-yl]propionic acid

> <PUBCHEM_IUPAC_INCHI>
InChI=1S/C19H18O4/c20-17(21)9-11-19(12-10-18(22)23)15-7-3-1-5-13(15)14-6-2-4-8-16(14)19/h1-8H,9-12H2,(H,20,21)(H,22,23)

> <PUBCHEM_IUPAC_INCHIKEY>
HVIAEALBBMNFIW-UHFFFAOYSA-N

> <PUBCHEM_XLOGP3_AA>
3.1

> <PUBCHEM_EXACT_MASS>
310.12050905

> <PUBCHEM_MOLECULAR_FORMULA>
C19H18O4

> <PUBCHEM_MOLECULAR_WEIGHT>
310.3

> <PUBCHEM_SMILES>
C1=CC=C2C(=C1)C3=CC=CC=C3C2(CCC(=O)O)CCC(=O)O

> <PUBCHEM_CONNECTIVITY_SMILES>
C1=CC=C2C(=C1)C3=CC=CC=C3C2(CCC(=O)O)CCC(=O)O

> <PUBCHEM_CACTVS_TPSA>
74.6

> <PUBCHEM_MONOISOTOPIC_WEIGHT>
310.12050905

> <PUBCHEM_TOTAL_CHARGE>
0

> <PUBCHEM_HEAVY_ATOM_COUNT>
23

> <PUBCHEM_ATOM_DEF_STEREO_COUNT>
0

> <PUBCHEM_ATOM_UDEF_STEREO_COUNT>
0

> <PUBCHEM_BOND_DEF_STEREO_COUNT>
0

> <PUBCHEM_BOND_UDEF_STEREO_COUNT>
0

> <PUBCHEM_ISOTOPIC_ATOM_COUNT>
0

> <PUBCHEM_COMPONENT_COUNT>
1

> <PUBCHEM_CACTVS_TAUTO_COUNT>
-1

> <PUBCHEM_COORDINATE_TYPE>
1
5
255

> <PUBCHEM_BONDANNOTATIONS>
10  16  8
11  17  8
14  18  8
15  19  8
16  20  8
17  21  8
18  20  8
19  21  8
6  10  8
6  14  8
7  11  8
7  15  8

$$$$
