21414
  -OEChem-05122609232D

 63 62  0     1  0  0  0  0  0999 V2000
    8.0622   -0.6900    0.0000 O   0  0  0  0  0  0  0  0  0  0  0  0
    8.9282    0.8100    0.0000 C   0  0  3  0  0  0  0  0  0  0  0  0
    9.7942    1.3100    0.0000 C   0  0  0  0  0  0  0  0  0  0  0  0
    8.0622    1.3100    0.0000 C   0  0  0  0  0  0  0  0  0  0  0  0
   10.6603    0.8100    0.0000 C   0  0  0  0  0  0  0  0  0  0  0  0
    7.1962    0.8100    0.0000 C   0  0  0  0  0  0  0  0  0  0  0  0
   11.5263    1.3100    0.0000 C   0  0  0  0  0  0  0  0  0  0  0  0
    6.3301    1.3100    0.0000 C   0  0  0  0  0  0  0  0  0  0  0  0
    8.9282   -0.1900    0.0000 C   0  0  0  0  0  0  0  0  0  0  0  0
   12.3923    0.8100    0.0000 C   0  0  0  0  0  0  0  0  0  0  0  0
    5.4641    0.8100    0.0000 C   0  0  0  0  0  0  0  0  0  0  0  0
   13.2583    1.3100    0.0000 C   0  0  0  0  0  0  0  0  0  0  0  0
   14.1244    0.8100    0.0000 C   0  0  0  0  0  0  0  0  0  0  0  0
    4.5981    1.3100    0.0000 C   0  0  0  0  0  0  0  0  0  0  0  0
   14.9904    1.3100    0.0000 C   0  0  0  0  0  0  0  0  0  0  0  0
    3.7321    0.8100    0.0000 C   0  0  0  0  0  0  0  0  0  0  0  0
   15.8564    0.8100    0.0000 C   0  0  0  0  0  0  0  0  0  0  0  0
    2.8660    1.3100    0.0000 C   0  0  0  0  0  0  0  0  0  0  0  0
   16.7224    1.3100    0.0000 C   0  0  0  0  0  0  0  0  0  0  0  0
    2.0000    0.8100    0.0000 C   0  0  0  0  0  0  0  0  0  0  0  0
   17.5885    0.8100    0.0000 C   0  0  0  0  0  0  0  0  0  0  0  0
    9.4651    0.5000    0.0000 H   0  0  0  0  0  0  0  0  0  0  0  0
   10.1928    1.7850    0.0000 H   0  0  0  0  0  0  0  0  0  0  0  0
    9.3957    1.7850    0.0000 H   0  0  0  0  0  0  0  0  0  0  0  0
    8.4607    1.7850    0.0000 H   0  0  0  0  0  0  0  0  0  0  0  0
    7.6637    1.7850    0.0000 H   0  0  0  0  0  0  0  0  0  0  0  0
   10.2617    0.3351    0.0000 H   0  0  0  0  0  0  0  0  0  0  0  0
   11.0588    0.3351    0.0000 H   0  0  0  0  0  0  0  0  0  0  0  0
    6.7976    0.3351    0.0000 H   0  0  0  0  0  0  0  0  0  0  0  0
    7.5947    0.3351    0.0000 H   0  0  0  0  0  0  0  0  0  0  0  0
   11.9248    1.7850    0.0000 H   0  0  0  0  0  0  0  0  0  0  0  0
   11.1278    1.7850    0.0000 H   0  0  0  0  0  0  0  0  0  0  0  0
    6.7287    1.7850    0.0000 H   0  0  0  0  0  0  0  0  0  0  0  0
    5.9316    1.7850    0.0000 H   0  0  0  0  0  0  0  0  0  0  0  0
    9.1403   -0.7726    0.0000 H   0  0  0  0  0  0  0  0  0  0  0  0
    9.5388   -0.0823    0.0000 H   0  0  0  0  0  0  0  0  0  0  0  0
   11.9938    0.3351    0.0000 H   0  0  0  0  0  0  0  0  0  0  0  0
   12.7908    0.3351    0.0000 H   0  0  0  0  0  0  0  0  0  0  0  0
    5.0656    0.3351    0.0000 H   0  0  0  0  0  0  0  0  0  0  0  0
    5.8626    0.3351    0.0000 H   0  0  0  0  0  0  0  0  0  0  0  0
   13.6569    1.7850    0.0000 H   0  0  0  0  0  0  0  0  0  0  0  0
   12.8598    1.7850    0.0000 H   0  0  0  0  0  0  0  0  0  0  0  0
   13.7258    0.3351    0.0000 H   0  0  0  0  0  0  0  0  0  0  0  0
   14.5229    0.3351    0.0000 H   0  0  0  0  0  0  0  0  0  0  0  0
    4.9966    1.7850    0.0000 H   0  0  0  0  0  0  0  0  0  0  0  0
    4.1996    1.7850    0.0000 H   0  0  0  0  0  0  0  0  0  0  0  0
   15.3889    1.7850    0.0000 H   0  0  0  0  0  0  0  0  0  0  0  0
   14.5919    1.7850    0.0000 H   0  0  0  0  0  0  0  0  0  0  0  0
    3.3335    0.3351    0.0000 H   0  0  0  0  0  0  0  0  0  0  0  0
    4.1306    0.3351    0.0000 H   0  0  0  0  0  0  0  0  0  0  0  0
   15.4579    0.3351    0.0000 H   0  0  0  0  0  0  0  0  0  0  0  0
   16.2549    0.3351    0.0000 H   0  0  0  0  0  0  0  0  0  0  0  0
    8.0622   -1.3100    0.0000 H   0  0  0  0  0  0  0  0  0  0  0  0
    3.2646    1.7850    0.0000 H   0  0  0  0  0  0  0  0  0  0  0  0
    2.4675    1.7850    0.0000 H   0  0  0  0  0  0  0  0  0  0  0  0
   17.1210    1.7850    0.0000 H   0  0  0  0  0  0  0  0  0  0  0  0
   16.3239    1.7850    0.0000 H   0  0  0  0  0  0  0  0  0  0  0  0
    1.6900    1.3469    0.0000 H   0  0  0  0  0  0  0  0  0  0  0  0
    1.4631    0.5000    0.0000 H   0  0  0  0  0  0  0  0  0  0  0  0
    2.3100    0.2731    0.0000 H   0  0  0  0  0  0  0  0  0  0  0  0
   17.2785    0.2731    0.0000 H   0  0  0  0  0  0  0  0  0  0  0  0
   18.1254    0.5000    0.0000 H   0  0  0  0  0  0  0  0  0  0  0  0
   17.8985    1.3469    0.0000 H   0  0  0  0  0  0  0  0  0  0  0  0
  1  9  1  0  0  0  0
  1 53  1  0  0  0  0
  2  3  1  0  0  0  0
  2  4  1  0  0  0  0
  2  9  1  0  0  0  0
  2 22  1  0  0  0  0
  3  5  1  0  0  0  0
  3 23  1  0  0  0  0
  3 24  1  0  0  0  0
  4  6  1  0  0  0  0
  4 25  1  0  0  0  0
  4 26  1  0  0  0  0
  5  7  1  0  0  0  0
  5 27  1  0  0  0  0
  5 28  1  0  0  0  0
  6  8  1  0  0  0  0
  6 29  1  0  0  0  0
  6 30  1  0  0  0  0
  7 10  1  0  0  0  0
  7 31  1  0  0  0  0
  7 32  1  0  0  0  0
  8 11  1  0  0  0  0
  8 33  1  0  0  0  0
  8 34  1  0  0  0  0
  9 35  1  0  0  0  0
  9 36  1  0  0  0  0
 10 12  1  0  0  0  0
 10 37  1  0  0  0  0
 10 38  1  0  0  0  0
 11 14  1  0  0  0  0
 11 39  1  0  0  0  0
 11 40  1  0  0  0  0
 12 13  1  0  0  0  0
 12 41  1  0  0  0  0
 12 42  1  0  0  0  0
 13 15  1  0  0  0  0
 13 43  1  0  0  0  0
 13 44  1  0  0  0  0
 14 16  1  0  0  0  0
 14 45  1  0  0  0  0
 14 46  1  0  0  0  0
 15 17  1  0  0  0  0
 15 47  1  0  0  0  0
 15 48  1  0  0  0  0
 16 18  1  0  0  0  0
 16 49  1  0  0  0  0
 16 50  1  0  0  0  0
 17 19  1  0  0  0  0
 17 51  1  0  0  0  0
 17 52  1  0  0  0  0
 18 20  1  0  0  0  0
 18 54  1  0  0  0  0
 18 55  1  0  0  0  0
 19 21  1  0  0  0  0
 19 56  1  0  0  0  0
 19 57  1  0  0  0  0
 20 58  1  0  0  0  0
 20 59  1  0  0  0  0
 20 60  1  0  0  0  0
 21 61  1  0  0  0  0
 21 62  1  0  0  0  0
 21 63  1  0  0  0  0
M  END
> <PUBCHEM_COMPOUND_CID>
21414

> <PUBCHEM_COMPOUND_CANONICALIZED>
1

> <PUBCHEM_CACTVS_COMPLEXITY>
179

> <PUBCHEM_CACTVS_HBOND_ACCEPTOR>
1

> <PUBCHEM_CACTVS_HBOND_DONOR>
1

> <PUBCHEM_CACTVS_ROTATABLE_BOND>
17

> <PUBCHEM_CACTVS_SUBSKEYS>
AAADcfB4IAAAAAAAAAAAAAAAAAAAAAAAAAAAAAAAAAAAAAAAAAAAGgAACAAADQCggAICAAAAAgAAAAAAAAAAAAAAAAAAAAAAAAAAEAIAAAAAQAAEAAAAAAGAwOAOAAAAAAAAAAAAAAAAAAAAAAAAAAAAAA==

> <PUBCHEM_IUPAC_OPENEYE_NAME>
2-octyldodecan-1-ol

> <PUBCHEM_IUPAC_CAS_NAME>
2-octyl-1-dodecanol

> <PUBCHEM_IUPAC_NAME_MARKUP>
2-octyldodecan-1-ol

> <PUBCHEM_IUPAC_NAME>
2-octyldodecan-1-ol

> <PUBCHEM_IUPAC_SYSTEMATIC_NAME>
2-octyldodecan-1-ol

> <PUBCHEM_IUPAC_TRADITIONAL_NAME>
2-octyldodecan-1-ol

> <PUBCHEM_IUPAC_INCHI>
InChI=1S/C20H42O/c1-3-5-7-9-11-12-14-16-18-20(19-21)17-15-13-10-8-6-4-2/h20-21H,3-19H2,1-2H3

> <PUBCHEM_IUPAC_INCHIKEY>
LEACJMVNYZDSKR-UHFFFAOYSA-N

> <PUBCHEM_XLOGP3_AA>
9.2

> <PUBCHEM_EXACT_MASS>
298.323565959

> <PUBCHEM_MOLECULAR_FORMULA>
C20H42O

> <PUBCHEM_MOLECULAR_WEIGHT>
298.5

> <PUBCHEM_SMILES>
CCCCCCCCCCC(CCCCCCCC)CO

> <PUBCHEM_CONNECTIVITY_SMILES>
CCCCCCCCCCC(CCCCCCCC)CO

> <PUBCHEM_CACTVS_TPSA>
20.2

> <PUBCHEM_MONOISOTOPIC_WEIGHT>
298.323565959

> <PUBCHEM_TOTAL_CHARGE>
0

> <PUBCHEM_HEAVY_ATOM_COUNT>
21

> <PUBCHEM_ATOM_DEF_STEREO_COUNT>
0

> <PUBCHEM_ATOM_UDEF_STEREO_COUNT>
1

> <PUBCHEM_BOND_DEF_STEREO_COUNT>
0

> <PUBCHEM_BOND_UDEF_STEREO_COUNT>
0

> <PUBCHEM_ISOTOPIC_ATOM_COUNT>
0

> <PUBCHEM_COMPONENT_COUNT>
1

> <PUBCHEM_CACTVS_TAUTO_COUNT>
-1

> <PUBCHEM_COORDINATE_TYPE>
1
5
255

> <PUBCHEM_BONDANNOTATIONS>
2  4  3

$$$$
