21455498
  -OEChem-05122610022D

 18 17  0     0  0  0  0  0  0999 V2000
    5.9641   -0.7990    0.0000 F   0  0  0  0  0  0  0  0  0  0  0  0
    4.9641    0.9330    0.0000 F   0  0  0  0  0  0  0  0  0  0  0  0
    5.8301    1.4330    0.0000 F   0  0  0  0  0  0  0  0  0  0  0  0
    6.8301   -0.2990    0.0000 F   0  0  0  0  0  0  0  0  0  0  0  0
    4.0981    0.4330    0.0000 F   0  0  0  0  0  0  0  0  0  0  0  0
    5.0981   -1.2990    0.0000 F   0  0  0  0  0  0  0  0  0  0  0  0
    8.0622    1.5670    0.0000 F   0  0  0  0  0  0  0  0  0  0  0  0
    7.6962    0.2010    0.0000 F   0  0  0  0  0  0  0  0  0  0  0  0
    6.6962    1.9330    0.0000 F   0  0  0  0  0  0  0  0  0  0  0  0
    3.7320   -1.9330    0.0000 F   0  0  0  0  0  0  0  0  0  0  0  0
    2.0000   -0.9330    0.0000 F   0  0  0  0  0  0  0  0  0  0  0  0
    5.4641    0.0670    0.0000 C   0  0  0  0  0  0  0  0  0  0  0  0
    6.3301    0.5670    0.0000 C   0  0  0  0  0  0  0  0  0  0  0  0
    4.5981   -0.4330    0.0000 C   0  0  0  0  0  0  0  0  0  0  0  0
    7.1962    1.0670    0.0000 C   0  0  0  0  0  0  0  0  0  0  0  0
    3.7320   -0.9330    0.0000 C   0  0  0  0  0  0  0  0  0  0  0  0
    2.8660   -0.4330    0.0000 C   0  0  0  0  0  0  0  0  0  0  0  0
    2.8660    0.1870    0.0000 H   0  0  0  0  0  0  0  0  0  0  0  0
  1 12  1  0  0  0  0
  2 12  1  0  0  0  0
  3 13  1  0  0  0  0
  4 13  1  0  0  0  0
  5 14  1  0  0  0  0
  6 14  1  0  0  0  0
  7 15  1  0  0  0  0
  8 15  1  0  0  0  0
  9 15  1  0  0  0  0
 10 16  1  0  0  0  0
 11 17  1  0  0  0  0
 12 13  1  0  0  0  0
 12 14  1  0  0  0  0
 13 15  1  0  0  0  0
 14 16  1  0  0  0  0
 16 17  2  3  0  0  0
 17 18  1  0  0  0  0
M  END
> <PUBCHEM_COMPOUND_CID>
21455498

> <PUBCHEM_COMPOUND_CANONICALIZED>
1

> <PUBCHEM_CACTVS_COMPLEXITY>
308

> <PUBCHEM_CACTVS_HBOND_ACCEPTOR>
11

> <PUBCHEM_CACTVS_HBOND_DONOR>
0

> <PUBCHEM_CACTVS_ROTATABLE_BOND>
3

> <PUBCHEM_CACTVS_SUBSKEYS>
AAADcQBgAcAAAAAAAAAAAAAAAAAAAAAAAAAAAAAAAAAAAAAAAAAAGQAAAAAACACAABAAAAAAAACAAABCAAAAAAAgAAAAAAAAAAgAAAIAAAAAAAAAgAAAAAAAAAAAAAAAAAAAAAAAAAAAAAAAAAAAAAAAAA==

> <PUBCHEM_IUPAC_OPENEYE_NAME>
1,2,3,3,4,4,5,5,6,6,6-undecafluorohex-1-ene

> <PUBCHEM_IUPAC_CAS_NAME>
1,2,3,3,4,4,5,5,6,6,6-undecafluoro-1-hexene

> <PUBCHEM_IUPAC_NAME_MARKUP>
1,2,3,3,4,4,5,5,6,6,6-undecafluorohex-1-ene

> <PUBCHEM_IUPAC_NAME>
1,2,3,3,4,4,5,5,6,6,6-undecafluorohex-1-ene

> <PUBCHEM_IUPAC_SYSTEMATIC_NAME>
1,2,3,3,4,4,5,5,6,6,6-undecakis(fluoranyl)hex-1-ene

> <PUBCHEM_IUPAC_TRADITIONAL_NAME>
1,2,3,3,4,4,5,5,6,6,6-undecafluorohex-1-ene

> <PUBCHEM_IUPAC_INCHI>
InChI=1S/C6HF11/c7-1-2(8)3(9,10)4(11,12)5(13,14)6(15,16)17/h1H

> <PUBCHEM_IUPAC_INCHIKEY>
XBCWZRARCMLNAN-UHFFFAOYSA-N

> <PUBCHEM_XLOGP3_AA>
3.6

> <PUBCHEM_EXACT_MASS>
281.99025981

> <PUBCHEM_MOLECULAR_FORMULA>
C6HF11

> <PUBCHEM_MOLECULAR_WEIGHT>
282.05

> <PUBCHEM_SMILES>
C(=C(C(C(C(C(F)(F)F)(F)F)(F)F)(F)F)F)F

> <PUBCHEM_CONNECTIVITY_SMILES>
C(=C(C(C(C(C(F)(F)F)(F)F)(F)F)(F)F)F)F

> <PUBCHEM_CACTVS_TPSA>
0

> <PUBCHEM_MONOISOTOPIC_WEIGHT>
281.99025981

> <PUBCHEM_TOTAL_CHARGE>
0

> <PUBCHEM_HEAVY_ATOM_COUNT>
17

> <PUBCHEM_ATOM_DEF_STEREO_COUNT>
0

> <PUBCHEM_ATOM_UDEF_STEREO_COUNT>
0

> <PUBCHEM_BOND_DEF_STEREO_COUNT>
0

> <PUBCHEM_BOND_UDEF_STEREO_COUNT>
1

> <PUBCHEM_ISOTOPIC_ATOM_COUNT>
0

> <PUBCHEM_COMPONENT_COUNT>
1

> <PUBCHEM_CACTVS_TAUTO_COUNT>
-1

> <PUBCHEM_COORDINATE_TYPE>
1
5
255

> <PUBCHEM_BONDANNOTATIONS>
16  17  1

$$$$
