21910004
  -OEChem-05122608462D

 98 98  0     0  0  0  0  0  0999 V2000
    2.8660    8.0000    0.0000 O   0  0  0  0  0  0  0  0  0  0  0  0
    7.1962    3.5000    0.0000 O   0  0  0  0  0  0  0  0  0  0  0  0
    8.0622    5.0000    0.0000 O   0  0  0  0  0  0  0  0  0  0  0  0
    2.8660    6.0000    0.0000 C   0  0  0  0  0  0  0  0  0  0  0  0
    4.5981    9.0000    0.0000 C   0  0  0  0  0  0  0  0  0  0  0  0
    3.7321    6.5000    0.0000 C   0  0  0  0  0  0  0  0  0  0  0  0
    4.5981    8.0000    0.0000 C   0  0  0  0  0  0  0  0  0  0  0  0
   11.5263   -3.0000    0.0000 C   0  0  0  0  0  0  0  0  0  0  0  0
   11.5263   -4.0000    0.0000 C   0  0  0  0  0  0  0  0  0  0  0  0
   10.6603   -2.5000    0.0000 C   0  0  0  0  0  0  0  0  0  0  0  0
   12.3923   -4.5000    0.0000 C   0  0  0  0  0  0  0  0  0  0  0  0
   10.6603   -1.5000    0.0000 C   0  0  0  0  0  0  0  0  0  0  0  0
   12.3923   -5.5000    0.0000 C   0  0  0  0  0  0  0  0  0  0  0  0
    9.7942   -1.0000    0.0000 C   0  0  0  0  0  0  0  0  0  0  0  0
    3.7321    7.5000    0.0000 C   0  0  0  0  0  0  0  0  0  0  0  0
   13.2583   -6.0000    0.0000 C   0  0  0  0  0  0  0  0  0  0  0  0
    9.7942    0.0000    0.0000 C   0  0  0  0  0  0  0  0  0  0  0  0
   13.2583   -7.0000    0.0000 C   0  0  0  0  0  0  0  0  0  0  0  0
    8.9282    0.5000    0.0000 C   0  0  0  0  0  0  0  0  0  0  0  0
    2.0000    5.5000    0.0000 C   0  0  0  0  0  0  0  0  0  0  0  0
    3.3660    5.1340    0.0000 C   0  0  0  0  0  0  0  0  0  0  0  0
    2.3660    6.8660    0.0000 C   0  0  0  0  0  0  0  0  0  0  0  0
    4.5981   10.0000    0.0000 C   0  0  0  0  0  0  0  0  0  0  0  0
    5.5981    9.0000    0.0000 C   0  0  0  0  0  0  0  0  0  0  0  0
    3.5981    9.0000    0.0000 C   0  0  0  0  0  0  0  0  0  0  0  0
    4.5981    6.0000    0.0000 C   0  0  0  0  0  0  0  0  0  0  0  0
    5.4641    7.5000    0.0000 C   0  0  0  0  0  0  0  0  0  0  0  0
    5.4641    6.5000    0.0000 C   0  0  0  0  0  0  0  0  0  0  0  0
   14.1244   -7.5000    0.0000 C   0  0  0  0  0  0  0  0  0  0  0  0
    8.9282    1.5000    0.0000 C   0  0  0  0  0  0  0  0  0  0  0  0
   14.1244   -8.5000    0.0000 C   0  0  0  0  0  0  0  0  0  0  0  0
    8.0622    2.0000    0.0000 C   0  0  0  0  0  0  0  0  0  0  0  0
   14.9904   -9.0000    0.0000 C   0  0  0  0  0  0  0  0  0  0  0  0
    6.3301    6.0000    0.0000 C   0  0  0  0  0  0  0  0  0  0  0  0
    8.0622    3.0000    0.0000 C   0  0  0  0  0  0  0  0  0  0  0  0
   14.9904  -10.0000    0.0000 C   0  0  0  0  0  0  0  0  0  0  0  0
    6.3301    5.0000    0.0000 C   0  0  0  0  0  0  0  0  0  0  0  0
    7.1962    4.5000    0.0000 C   0  0  0  0  0  0  0  0  0  0  0  0
   12.1369   -3.1077    0.0000 H   0  0  0  0  0  0  0  0  0  0  0  0
   11.7383   -2.4174    0.0000 H   0  0  0  0  0  0  0  0  0  0  0  0
   10.9157   -3.8923    0.0000 H   0  0  0  0  0  0  0  0  0  0  0  0
   11.3142   -4.5826    0.0000 H   0  0  0  0  0  0  0  0  0  0  0  0
   10.0497   -2.3923    0.0000 H   0  0  0  0  0  0  0  0  0  0  0  0
   10.4482   -3.0826    0.0000 H   0  0  0  0  0  0  0  0  0  0  0  0
   13.0029   -4.6077    0.0000 H   0  0  0  0  0  0  0  0  0  0  0  0
   12.6044   -3.9174    0.0000 H   0  0  0  0  0  0  0  0  0  0  0  0
   11.2708   -1.6077    0.0000 H   0  0  0  0  0  0  0  0  0  0  0  0
   10.8723   -0.9174    0.0000 H   0  0  0  0  0  0  0  0  0  0  0  0
   11.7817   -5.3923    0.0000 H   0  0  0  0  0  0  0  0  0  0  0  0
   12.1803   -6.0826    0.0000 H   0  0  0  0  0  0  0  0  0  0  0  0
    9.1837   -0.8923    0.0000 H   0  0  0  0  0  0  0  0  0  0  0  0
    9.5822   -1.5826    0.0000 H   0  0  0  0  0  0  0  0  0  0  0  0
   13.8689   -6.1077    0.0000 H   0  0  0  0  0  0  0  0  0  0  0  0
   13.4704   -5.4174    0.0000 H   0  0  0  0  0  0  0  0  0  0  0  0
   10.4048   -0.1077    0.0000 H   0  0  0  0  0  0  0  0  0  0  0  0
   10.0063    0.5826    0.0000 H   0  0  0  0  0  0  0  0  0  0  0  0
   12.6477   -6.8923    0.0000 H   0  0  0  0  0  0  0  0  0  0  0  0
   13.0463   -7.5826    0.0000 H   0  0  0  0  0  0  0  0  0  0  0  0
    8.3176    0.6077    0.0000 H   0  0  0  0  0  0  0  0  0  0  0  0
    8.7162   -0.0826    0.0000 H   0  0  0  0  0  0  0  0  0  0  0  0
    1.6900    6.0369    0.0000 H   0  0  0  0  0  0  0  0  0  0  0  0
    1.4631    5.1900    0.0000 H   0  0  0  0  0  0  0  0  0  0  0  0
    2.3100    4.9631    0.0000 H   0  0  0  0  0  0  0  0  0  0  0  0
    2.8291    4.8240    0.0000 H   0  0  0  0  0  0  0  0  0  0  0  0
    3.6760    4.5970    0.0000 H   0  0  0  0  0  0  0  0  0  0  0  0
    3.9030    5.4440    0.0000 H   0  0  0  0  0  0  0  0  0  0  0  0
    2.9030    7.1760    0.0000 H   0  0  0  0  0  0  0  0  0  0  0  0
    2.0560    7.4030    0.0000 H   0  0  0  0  0  0  0  0  0  0  0  0
    1.8291    6.5560    0.0000 H   0  0  0  0  0  0  0  0  0  0  0  0
    5.2181   10.0000    0.0000 H   0  0  0  0  0  0  0  0  0  0  0  0
    4.5981   10.6200    0.0000 H   0  0  0  0  0  0  0  0  0  0  0  0
    3.9781   10.0000    0.0000 H   0  0  0  0  0  0  0  0  0  0  0  0
    5.5981    8.3800    0.0000 H   0  0  0  0  0  0  0  0  0  0  0  0
    6.2181    9.0000    0.0000 H   0  0  0  0  0  0  0  0  0  0  0  0
    5.5981    9.6200    0.0000 H   0  0  0  0  0  0  0  0  0  0  0  0
    3.5981    9.6200    0.0000 H   0  0  0  0  0  0  0  0  0  0  0  0
    2.9781    9.0000    0.0000 H   0  0  0  0  0  0  0  0  0  0  0  0
    3.5981    8.3800    0.0000 H   0  0  0  0  0  0  0  0  0  0  0  0
    4.5981    5.3800    0.0000 H   0  0  0  0  0  0  0  0  0  0  0  0
    6.0010    7.8100    0.0000 H   0  0  0  0  0  0  0  0  0  0  0  0
   14.7349   -7.6077    0.0000 H   0  0  0  0  0  0  0  0  0  0  0  0
   14.3364   -6.9174    0.0000 H   0  0  0  0  0  0  0  0  0  0  0  0
    9.5388    1.3923    0.0000 H   0  0  0  0  0  0  0  0  0  0  0  0
    9.1403    2.0826    0.0000 H   0  0  0  0  0  0  0  0  0  0  0  0
   13.5138   -8.3923    0.0000 H   0  0  0  0  0  0  0  0  0  0  0  0
   13.9123   -9.0826    0.0000 H   0  0  0  0  0  0  0  0  0  0  0  0
    7.4516    2.1077    0.0000 H   0  0  0  0  0  0  0  0  0  0  0  0
    7.8501    1.4174    0.0000 H   0  0  0  0  0  0  0  0  0  0  0  0
   15.6010   -9.1077    0.0000 H   0  0  0  0  0  0  0  0  0  0  0  0
   15.2024   -8.4174    0.0000 H   0  0  0  0  0  0  0  0  0  0  0  0
    6.8671    6.3100    0.0000 H   0  0  0  0  0  0  0  0  0  0  0  0
    2.8660    8.6200    0.0000 H   0  0  0  0  0  0  0  0  0  0  0  0
    8.6728    2.8923    0.0000 H   0  0  0  0  0  0  0  0  0  0  0  0
    8.2742    3.5826    0.0000 H   0  0  0  0  0  0  0  0  0  0  0  0
   14.3704  -10.0000    0.0000 H   0  0  0  0  0  0  0  0  0  0  0  0
   14.9904  -10.6200    0.0000 H   0  0  0  0  0  0  0  0  0  0  0  0
   15.6104  -10.0000    0.0000 H   0  0  0  0  0  0  0  0  0  0  0  0
    5.7932    4.6900    0.0000 H   0  0  0  0  0  0  0  0  0  0  0  0
  1 15  1  0  0  0  0
  1 92  1  0  0  0  0
  2 35  1  0  0  0  0
  2 38  1  0  0  0  0
  3 38  2  0  0  0  0
  4  6  1  0  0  0  0
  4 20  1  0  0  0  0
  4 21  1  0  0  0  0
  4 22  1  0  0  0  0
  5  7  1  0  0  0  0
  5 23  1  0  0  0  0
  5 24  1  0  0  0  0
  5 25  1  0  0  0  0
  6 15  2  0  0  0  0
  6 26  1  0  0  0  0
  7 15  1  0  0  0  0
  7 27  2  0  0  0  0
  8  9  1  0  0  0  0
  8 10  1  0  0  0  0
  8 39  1  0  0  0  0
  8 40  1  0  0  0  0
  9 11  1  0  0  0  0
  9 41  1  0  0  0  0
  9 42  1  0  0  0  0
 10 12  1  0  0  0  0
 10 43  1  0  0  0  0
 10 44  1  0  0  0  0
 11 13  1  0  0  0  0
 11 45  1  0  0  0  0
 11 46  1  0  0  0  0
 12 14  1  0  0  0  0
 12 47  1  0  0  0  0
 12 48  1  0  0  0  0
 13 16  1  0  0  0  0
 13 49  1  0  0  0  0
 13 50  1  0  0  0  0
 14 17  1  0  0  0  0
 14 51  1  0  0  0  0
 14 52  1  0  0  0  0
 16 18  1  0  0  0  0
 16 53  1  0  0  0  0
 16 54  1  0  0  0  0
 17 19  1  0  0  0  0
 17 55  1  0  0  0  0
 17 56  1  0  0  0  0
 18 29  1  0  0  0  0
 18 57  1  0  0  0  0
 18 58  1  0  0  0  0
 19 30  1  0  0  0  0
 19 59  1  0  0  0  0
 19 60  1  0  0  0  0
 20 61  1  0  0  0  0
 20 62  1  0  0  0  0
 20 63  1  0  0  0  0
 21 64  1  0  0  0  0
 21 65  1  0  0  0  0
 21 66  1  0  0  0  0
 22 67  1  0  0  0  0
 22 68  1  0  0  0  0
 22 69  1  0  0  0  0
 23 70  1  0  0  0  0
 23 71  1  0  0  0  0
 23 72  1  0  0  0  0
 24 73  1  0  0  0  0
 24 74  1  0  0  0  0
 24 75  1  0  0  0  0
 25 76  1  0  0  0  0
 25 77  1  0  0  0  0
 25 78  1  0  0  0  0
 26 28  2  0  0  0  0
 26 79  1  0  0  0  0
 27 28  1  0  0  0  0
 27 80  1  0  0  0  0
 28 34  1  0  0  0  0
 29 31  1  0  0  0  0
 29 81  1  0  0  0  0
 29 82  1  0  0  0  0
 30 32  1  0  0  0  0
 30 83  1  0  0  0  0
 30 84  1  0  0  0  0
 31 33  1  0  0  0  0
 31 85  1  0  0  0  0
 31 86  1  0  0  0  0
 32 35  1  0  0  0  0
 32 87  1  0  0  0  0
 32 88  1  0  0  0  0
 33 36  1  0  0  0  0
 33 89  1  0  0  0  0
 33 90  1  0  0  0  0
 34 37  2  0  0  0  0
 34 91  1  0  0  0  0
 35 93  1  0  0  0  0
 35 94  1  0  0  0  0
 36 95  1  0  0  0  0
 36 96  1  0  0  0  0
 36 97  1  0  0  0  0
 37 38  1  0  0  0  0
 37 98  1  0  0  0  0
M  END
> <PUBCHEM_COMPOUND_CID>
21910004

> <PUBCHEM_COMPOUND_CANONICALIZED>
1

> <PUBCHEM_CACTVS_COMPLEXITY>
600

> <PUBCHEM_CACTVS_HBOND_ACCEPTOR>
3

> <PUBCHEM_CACTVS_HBOND_DONOR>
1

> <PUBCHEM_CACTVS_ROTATABLE_BOND>
22

> <PUBCHEM_CACTVS_SUBSKEYS>
AAADcfB8MAAAAAAAAAAAAAAAAAAAAAAAAAAwAAAAAAAAAAABAAAAGgAACAAADgSgmAIyDoAABgCIAiDSCAACAAAgIAAIiAAECMgIJiKCMRKCcAAkwBEIuYeAwOAPoAACAAAIAABAAAQAABAAAAAAAAAAAA==

> <PUBCHEM_IUPAC_OPENEYE_NAME>
octadecyl (E)-3-(3,5-ditert-butyl-4-hydroxy-phenyl)prop-2-enoate

> <PUBCHEM_IUPAC_CAS_NAME>
(E)-3-(3,5-ditert-butyl-4-hydroxyphenyl)-2-propenoic acid octadecyl ester

> <PUBCHEM_IUPAC_NAME_MARKUP>
octadecyl (<I>E</I>)-3-(3,5-di<I>tert</I>-butyl-4-hydroxyphenyl)prop-2-enoate

> <PUBCHEM_IUPAC_NAME>
octadecyl (E)-3-(3,5-ditert-butyl-4-hydroxyphenyl)prop-2-enoate

> <PUBCHEM_IUPAC_SYSTEMATIC_NAME>
octadecyl (E)-3-(3,5-ditert-butyl-4-oxidanyl-phenyl)prop-2-enoate

> <PUBCHEM_IUPAC_TRADITIONAL_NAME>
(E)-3-(3,5-ditert-butyl-4-hydroxy-phenyl)acrylic acid stearyl ester

> <PUBCHEM_IUPAC_INCHI>
InChI=1S/C35H60O3/c1-8-9-10-11-12-13-14-15-16-17-18-19-20-21-22-23-26-38-32(36)25-24-29-27-30(34(2,3)4)33(37)31(28-29)35(5,6)7/h24-25,27-28,37H,8-23,26H2,1-7H3/b25-24+

> <PUBCHEM_IUPAC_INCHIKEY>
PRKFEDZJXPHATD-OCOZRVBESA-N

> <PUBCHEM_XLOGP3_AA>
14

> <PUBCHEM_EXACT_MASS>
528.45424577

> <PUBCHEM_MOLECULAR_FORMULA>
C35H60O3

> <PUBCHEM_MOLECULAR_WEIGHT>
528.8

> <PUBCHEM_SMILES>
CCCCCCCCCCCCCCCCCCOC(=O)/C=C/C1=CC(=C(C(=C1)C(C)(C)C)O)C(C)(C)C

> <PUBCHEM_CONNECTIVITY_SMILES>
CCCCCCCCCCCCCCCCCCOC(=O)C=CC1=CC(=C(C(=C1)C(C)(C)C)O)C(C)(C)C

> <PUBCHEM_CACTVS_TPSA>
46.5

> <PUBCHEM_MONOISOTOPIC_WEIGHT>
528.45424577

> <PUBCHEM_TOTAL_CHARGE>
0

> <PUBCHEM_HEAVY_ATOM_COUNT>
38

> <PUBCHEM_ATOM_DEF_STEREO_COUNT>
0

> <PUBCHEM_ATOM_UDEF_STEREO_COUNT>
0

> <PUBCHEM_BOND_DEF_STEREO_COUNT>
1

> <PUBCHEM_BOND_UDEF_STEREO_COUNT>
0

> <PUBCHEM_ISOTOPIC_ATOM_COUNT>
0

> <PUBCHEM_COMPONENT_COUNT>
1

> <PUBCHEM_CACTVS_TAUTO_COUNT>
-1

> <PUBCHEM_COORDINATE_TYPE>
1
5
255

> <PUBCHEM_BONDANNOTATIONS>
26  28  8
27  28  8
6  15  8
6  26  8
7  15  8
7  27  8

$$$$
