21972
  -OEChem-05122609582D

 35 37  0     1  0  0  0  0  0999 V2000
    5.0274   -0.3771    0.0000 C   0  0  3  0  0  0  0  0  0  0  0  0
    4.0274   -0.3771    0.0000 C   0  0  3  0  0  0  0  0  0  0  0  0
    5.3364    0.5740    0.0000 C   0  0  3  0  0  0  0  0  0  0  0  0
    3.7183    0.5740    0.0000 C   0  0  3  0  0  0  0  0  0  0  0  0
    4.5274    1.1618    0.0000 C   0  0  0  0  0  0  0  0  0  0  0  0
    5.7123   -1.1618    0.0000 C   0  0  0  0  0  0  0  0  0  0  0  0
    3.3424   -1.1618    0.0000 C   0  0  0  0  0  0  0  0  0  0  0  0
    6.3518    0.8063    0.0000 C   0  0  0  0  0  0  0  0  0  0  0  0
    2.7029    0.8063    0.0000 C   0  0  0  0  0  0  0  0  0  0  0  0
    6.7328   -0.9531    0.0000 C   0  0  0  0  0  0  0  0  0  0  0  0
    2.3219   -0.9531    0.0000 C   0  0  0  0  0  0  0  0  0  0  0  0
    7.0547    0.0376    0.0000 C   0  0  0  0  0  0  0  0  0  0  0  0
    2.0000    0.0376    0.0000 C   0  0  0  0  0  0  0  0  0  0  0  0
    4.7708   -0.9415    0.0000 H   0  0  0  0  0  0  0  0  0  0  0  0
    4.2839   -0.9415    0.0000 H   0  0  0  0  0  0  0  0  0  0  0  0
    5.4606    1.1814    0.0000 H   0  0  0  0  0  0  0  0  0  0  0  0
    3.5941    1.1814    0.0000 H   0  0  0  0  0  0  0  0  0  0  0  0
    4.9422    1.6225    0.0000 H   0  0  0  0  0  0  0  0  0  0  0  0
    4.1125    1.6225    0.0000 H   0  0  0  0  0  0  0  0  0  0  0  0
    5.1824   -1.4836    0.0000 H   0  0  0  0  0  0  0  0  0  0  0  0
    5.9387   -1.7390    0.0000 H   0  0  0  0  0  0  0  0  0  0  0  0
    3.1161   -1.7390    0.0000 H   0  0  0  0  0  0  0  0  0  0  0  0
    3.8724   -1.4836    0.0000 H   0  0  0  0  0  0  0  0  0  0  0  0
    6.8742    1.1402    0.0000 H   0  0  0  0  0  0  0  0  0  0  0  0
    6.1122    1.3781    0.0000 H   0  0  0  0  0  0  0  0  0  0  0  0
    2.9426    1.3781    0.0000 H   0  0  0  0  0  0  0  0  0  0  0  0
    2.1806    1.1402    0.0000 H   0  0  0  0  0  0  0  0  0  0  0  0
    6.7513   -1.5728    0.0000 H   0  0  0  0  0  0  0  0  0  0  0  0
    7.3466   -1.0410    0.0000 H   0  0  0  0  0  0  0  0  0  0  0  0
    1.7081   -1.0410    0.0000 H   0  0  0  0  0  0  0  0  0  0  0  0
    2.3034   -1.5728    0.0000 H   0  0  0  0  0  0  0  0  0  0  0  0
    7.6029   -0.2521    0.0000 H   0  0  0  0  0  0  0  0  0  0  0  0
    7.4339    0.5281    0.0000 H   0  0  0  0  0  0  0  0  0  0  0  0
    1.6208    0.5281    0.0000 H   0  0  0  0  0  0  0  0  0  0  0  0
    1.4518   -0.2521    0.0000 H   0  0  0  0  0  0  0  0  0  0  0  0
  1  2  1  0  0  0  0
  1  3  1  0  0  0  0
  1  6  1  0  0  0  0
  1 14  1  0  0  0  0
  2  4  1  0  0  0  0
  2  7  1  0  0  0  0
  2 15  1  0  0  0  0
  3  5  1  0  0  0  0
  3  8  1  0  0  0  0
  3 16  1  0  0  0  0
  4  5  1  0  0  0  0
  4  9  1  0  0  0  0
  4 17  1  0  0  0  0
  5 18  1  0  0  0  0
  5 19  1  0  0  0  0
  6 10  1  0  0  0  0
  6 20  1  0  0  0  0
  6 21  1  0  0  0  0
  7 11  1  0  0  0  0
  7 22  1  0  0  0  0
  7 23  1  0  0  0  0
  8 12  1  0  0  0  0
  8 24  1  0  0  0  0
  8 25  1  0  0  0  0
  9 13  1  0  0  0  0
  9 26  1  0  0  0  0
  9 27  1  0  0  0  0
 10 12  1  0  0  0  0
 10 28  1  0  0  0  0
 10 29  1  0  0  0  0
 11 13  1  0  0  0  0
 11 30  1  0  0  0  0
 11 31  1  0  0  0  0
 12 32  1  0  0  0  0
 12 33  1  0  0  0  0
 13 34  1  0  0  0  0
 13 35  1  0  0  0  0
M  END
> <PUBCHEM_COMPOUND_CID>
21972

> <PUBCHEM_COMPOUND_CANONICALIZED>
1

> <PUBCHEM_CACTVS_COMPLEXITY>
164

> <PUBCHEM_CACTVS_HBOND_ACCEPTOR>
0

> <PUBCHEM_CACTVS_HBOND_DONOR>
0

> <PUBCHEM_CACTVS_ROTATABLE_BOND>
0

> <PUBCHEM_CACTVS_SUBSKEYS>
AAADceBwAAAAAAAAAAAAAAAAAAAAAYAAAAAwYAAAAAAAAGAAAAAAGAAAAAAADQCAAAAAAAAAAAAAAAAAAAAAAAAAAAAAAAAAAAAAAAIAAAAAAAAAAAAAAAEAgMAOgAAAAAAAAAAAAAAAACAAAQAACAAAAA==

> <PUBCHEM_IUPAC_OPENEYE_NAME>
2,3,4,4a,4b,5,6,7,8,8a,9,9a-dodecahydro-1H-fluorene

> <PUBCHEM_IUPAC_CAS_NAME>
2,3,4,4a,4b,5,6,7,8,8a,9,9a-dodecahydro-1H-fluorene

> <PUBCHEM_IUPAC_NAME_MARKUP>
2,3,4,4<I>a</I>,4<I>b</I>,5,6,7,8,8<I>a</I>,9,9<I>a</I>-dodecahydro-1<I>H</I>-fluorene

> <PUBCHEM_IUPAC_NAME>
2,3,4,4a,4b,5,6,7,8,8a,9,9a-dodecahydro-1H-fluorene

> <PUBCHEM_IUPAC_SYSTEMATIC_NAME>
2,3,4,4a,4b,5,6,7,8,8a,9,9a-dodecahydro-1H-fluorene

> <PUBCHEM_IUPAC_TRADITIONAL_NAME>
2,3,4,4a,4b,5,6,7,8,8a,9,9a-dodecahydro-1H-fluorene

> <PUBCHEM_IUPAC_INCHI>
InChI=1S/C13H22/c1-3-7-12-10(5-1)9-11-6-2-4-8-13(11)12/h10-13H,1-9H2

> <PUBCHEM_IUPAC_INCHIKEY>
OLWAZOBRCQWWDB-UHFFFAOYSA-N

> <PUBCHEM_XLOGP3_AA>
5.5

> <PUBCHEM_EXACT_MASS>
178.172150702

> <PUBCHEM_MOLECULAR_FORMULA>
C13H22

> <PUBCHEM_MOLECULAR_WEIGHT>
178.31

> <PUBCHEM_SMILES>
C1CCC2C(C1)CC3C2CCCC3

> <PUBCHEM_CONNECTIVITY_SMILES>
C1CCC2C(C1)CC3C2CCCC3

> <PUBCHEM_CACTVS_TPSA>
0

> <PUBCHEM_MONOISOTOPIC_WEIGHT>
178.172150702

> <PUBCHEM_TOTAL_CHARGE>
0

> <PUBCHEM_HEAVY_ATOM_COUNT>
13

> <PUBCHEM_ATOM_DEF_STEREO_COUNT>
0

> <PUBCHEM_ATOM_UDEF_STEREO_COUNT>
4

> <PUBCHEM_BOND_DEF_STEREO_COUNT>
0

> <PUBCHEM_BOND_UDEF_STEREO_COUNT>
0

> <PUBCHEM_ISOTOPIC_ATOM_COUNT>
0

> <PUBCHEM_COMPONENT_COUNT>
1

> <PUBCHEM_CACTVS_TAUTO_COUNT>
-1

> <PUBCHEM_COORDINATE_TYPE>
1
5
255

> <PUBCHEM_BONDANNOTATIONS>
1  6  3
2  7  3
3  8  3
4  9  3

$$$$
