220273
  -OEChem-05122608422D

 47 49  0     1  0  0  0  0  0999 V2000
    3.8000   -0.2553    0.0000 C   0  0  3  0  0  0  0  0  0  0  0  0
    3.8000   -1.2552    0.0000 C   0  0  3  0  0  0  0  0  0  0  0  0
    2.9061   -1.7899    0.0000 C   0  0  3  0  0  0  0  0  0  0  0  0
    2.9061    0.2794    0.0000 C   0  0  0  0  0  0  0  0  0  0  0  0
    4.6660   -1.7552    0.0000 C   0  0  0  0  0  0  0  0  0  0  0  0
    2.0000   -1.2761    0.0000 C   0  0  0  0  0  0  0  0  0  0  0  0
    4.6660    0.2447    0.0000 C   0  0  0  0  0  0  0  0  0  0  0  0
    2.0000   -0.2344    0.0000 C   0  0  0  0  0  0  0  0  0  0  0  0
    5.5321   -1.2552    0.0000 C   0  0  0  0  0  0  0  0  0  0  0  0
    3.8000    0.7447    0.0000 C   0  0  0  0  0  0  0  0  0  0  0  0
    5.5321   -0.2553    0.0000 C   0  0  0  0  0  0  0  0  0  0  0  0
    2.9176   -2.7898    0.0000 C   0  0  0  0  0  0  0  0  0  0  0  0
    4.6500    1.2863    0.0000 C   0  0  0  0  0  0  0  0  0  0  0  0
    6.4421    0.2516    0.0000 C   0  0  0  0  0  0  0  0  0  0  0  0
    6.4501    1.2932    0.0000 C   0  0  0  0  0  0  0  0  0  0  0  0
    5.5480    1.8140    0.0000 C   0  0  0  0  0  0  0  0  0  0  0  0
    7.3180    1.7898    0.0000 C   0  0  0  0  0  0  0  0  0  0  0  0
    7.3219    2.7898    0.0000 C   0  0  0  0  0  0  0  0  0  0  0  0
    8.1821    1.2865    0.0000 C   0  0  0  0  0  0  0  0  0  0  0  0
    3.8048   -1.8752    0.0000 H   0  0  0  0  0  0  0  0  0  0  0  0
    2.3721   -2.1051    0.0000 H   0  0  0  0  0  0  0  0  0  0  0  0
    3.3107    0.7492    0.0000 H   0  0  0  0  0  0  0  0  0  0  0  0
    2.5124    0.7584    0.0000 H   0  0  0  0  0  0  0  0  0  0  0  0
    4.2675   -2.2302    0.0000 H   0  0  0  0  0  0  0  0  0  0  0  0
    5.0646   -2.2302    0.0000 H   0  0  0  0  0  0  0  0  0  0  0  0
    1.3891   -1.1700    0.0000 H   0  0  0  0  0  0  0  0  0  0  0  0
    1.7909   -1.8598    0.0000 H   0  0  0  0  0  0  0  0  0  0  0  0
    1.7909    0.3493    0.0000 H   0  0  0  0  0  0  0  0  0  0  0  0
    1.3891   -0.3405    0.0000 H   0  0  0  0  0  0  0  0  0  0  0  0
    5.7441   -1.8379    0.0000 H   0  0  0  0  0  0  0  0  0  0  0  0
    6.1426   -1.1476    0.0000 H   0  0  0  0  0  0  0  0  0  0  0  0
    4.4200    0.7447    0.0000 H   0  0  0  0  0  0  0  0  0  0  0  0
    3.8000    1.3647    0.0000 H   0  0  0  0  0  0  0  0  0  0  0  0
    3.1800    0.7447    0.0000 H   0  0  0  0  0  0  0  0  0  0  0  0
    2.2977   -2.7970    0.0000 H   0  0  0  0  0  0  0  0  0  0  0  0
    2.9248   -3.4098    0.0000 H   0  0  0  0  0  0  0  0  0  0  0  0
    3.5376   -2.7827    0.0000 H   0  0  0  0  0  0  0  0  0  0  0  0
    4.1095    1.5900    0.0000 H   0  0  0  0  0  0  0  0  0  0  0  0
    6.9754   -0.0646    0.0000 H   0  0  0  0  0  0  0  0  0  0  0  0
    5.5456    2.4340    0.0000 H   0  0  0  0  0  0  0  0  0  0  0  0
    7.8562    2.0978    0.0000 H   0  0  0  0  0  0  0  0  0  0  0  0
    7.9419    2.7875    0.0000 H   0  0  0  0  0  0  0  0  0  0  0  0
    7.3243    3.4098    0.0000 H   0  0  0  0  0  0  0  0  0  0  0  0
    6.7019    2.7922    0.0000 H   0  0  0  0  0  0  0  0  0  0  0  0
    7.8701    0.7508    0.0000 H   0  0  0  0  0  0  0  0  0  0  0  0
    8.7179    0.9745    0.0000 H   0  0  0  0  0  0  0  0  0  0  0  0
    8.4942    1.8223    0.0000 H   0  0  0  0  0  0  0  0  0  0  0  0
  1  2  1  0  0  0  0
  1  4  1  0  0  0  0
  1  7  1  0  0  0  0
  1 10  1  0  0  0  0
  2  3  1  0  0  0  0
  2  5  1  0  0  0  0
  2 20  1  0  0  0  0
  3  6  1  0  0  0  0
  3 12  1  0  0  0  0
  3 21  1  0  0  0  0
  4  8  1  0  0  0  0
  4 22  1  0  0  0  0
  4 23  1  0  0  0  0
  5  9  1  0  0  0  0
  5 24  1  0  0  0  0
  5 25  1  0  0  0  0
  6  8  1  0  0  0  0
  6 26  1  0  0  0  0
  6 27  1  0  0  0  0
  7 11  2  0  0  0  0
  7 13  1  0  0  0  0
  8 28  1  0  0  0  0
  8 29  1  0  0  0  0
  9 11  1  0  0  0  0
  9 30  1  0  0  0  0
  9 31  1  0  0  0  0
 10 32  1  0  0  0  0
 10 33  1  0  0  0  0
 10 34  1  0  0  0  0
 11 14  1  0  0  0  0
 12 35  1  0  0  0  0
 12 36  1  0  0  0  0
 12 37  1  0  0  0  0
 13 16  2  0  0  0  0
 13 38  1  0  0  0  0
 14 15  2  0  0  0  0
 14 39  1  0  0  0  0
 15 16  1  0  0  0  0
 15 17  1  0  0  0  0
 16 40  1  0  0  0  0
 17 18  1  0  0  0  0
 17 19  1  0  0  0  0
 17 41  1  0  0  0  0
 18 42  1  0  0  0  0
 18 43  1  0  0  0  0
 18 44  1  0  0  0  0
 19 45  1  0  0  0  0
 19 46  1  0  0  0  0
 19 47  1  0  0  0  0
M  END
> <PUBCHEM_COMPOUND_CID>
220273

> <PUBCHEM_COMPOUND_CANONICALIZED>
1

> <PUBCHEM_CACTVS_COMPLEXITY>
318

> <PUBCHEM_CACTVS_HBOND_ACCEPTOR>
0

> <PUBCHEM_CACTVS_HBOND_DONOR>
0

> <PUBCHEM_CACTVS_ROTATABLE_BOND>
1

> <PUBCHEM_CACTVS_SUBSKEYS>
AAADceB4AAAAAAAAAAAAAAAAAAAAAAAAAAAwYMAAAAAAAADBAAAAGAAAAAAADwCAGAAyAIAAAACAAiBCAAACAAAgAAAIiAAAAIgIICKAERCAIAAggAAIiAcAgMAPwAACAAAQAACAAAQAACAAAAAAAAAAAA==

> <PUBCHEM_IUPAC_OPENEYE_NAME>
7-isopropyl-1,4a-dimethyl-2,3,4,9,10,10a-hexahydro-1H-phenanthrene

> <PUBCHEM_IUPAC_CAS_NAME>
1,4a-dimethyl-7-propan-2-yl-2,3,4,9,10,10a-hexahydro-1H-phenanthrene

> <PUBCHEM_IUPAC_NAME_MARKUP>
1,4<I>a</I>-dimethyl-7-propan-2-yl-2,3,4,9,10,10<I>a</I>-hexahydro-1<I>H</I>-phenanthrene

> <PUBCHEM_IUPAC_NAME>
1,4a-dimethyl-7-propan-2-yl-2,3,4,9,10,10a-hexahydro-1H-phenanthrene

> <PUBCHEM_IUPAC_SYSTEMATIC_NAME>
1,4a-dimethyl-7-propan-2-yl-2,3,4,9,10,10a-hexahydro-1H-phenanthrene

> <PUBCHEM_IUPAC_TRADITIONAL_NAME>
7-isopropyl-1,4a-dimethyl-2,3,4,9,10,10a-hexahydro-1H-phenanthrene

> <PUBCHEM_IUPAC_INCHI>
InChI=1S/C19H28/c1-13(2)15-7-10-18-16(12-15)8-9-17-14(3)6-5-11-19(17,18)4/h7,10,12-14,17H,5-6,8-9,11H2,1-4H3

> <PUBCHEM_IUPAC_INCHIKEY>
DAYLDISWSXEJLN-UHFFFAOYSA-N

> <PUBCHEM_XLOGP3_AA>
6.7

> <PUBCHEM_EXACT_MASS>
256.219100893

> <PUBCHEM_MOLECULAR_FORMULA>
C19H28

> <PUBCHEM_MOLECULAR_WEIGHT>
256.4

> <PUBCHEM_SMILES>
CC1CCCC2(C1CCC3=C2C=CC(=C3)C(C)C)C

> <PUBCHEM_CONNECTIVITY_SMILES>
CC1CCCC2(C1CCC3=C2C=CC(=C3)C(C)C)C

> <PUBCHEM_CACTVS_TPSA>
0

> <PUBCHEM_MONOISOTOPIC_WEIGHT>
256.219100893

> <PUBCHEM_TOTAL_CHARGE>
0

> <PUBCHEM_HEAVY_ATOM_COUNT>
19

> <PUBCHEM_ATOM_DEF_STEREO_COUNT>
0

> <PUBCHEM_ATOM_UDEF_STEREO_COUNT>
3

> <PUBCHEM_BOND_DEF_STEREO_COUNT>
0

> <PUBCHEM_BOND_UDEF_STEREO_COUNT>
0

> <PUBCHEM_ISOTOPIC_ATOM_COUNT>
0

> <PUBCHEM_COMPONENT_COUNT>
1

> <PUBCHEM_CACTVS_TAUTO_COUNT>
-1

> <PUBCHEM_COORDINATE_TYPE>
1
5
255

> <PUBCHEM_BONDANNOTATIONS>
1  10  3
11  14  8
13  16  8
14  15  8
15  16  8
2  5  3
3  12  3
7  11  8
7  13  8

$$$$
