22141518
  -OEChem-05122608192D

 39 38  0     0  0  0  0  0  0999 V2000
    3.4030   -2.7500    0.0000 S   0  0  0  0  0  0  0  0  0  0  0  0
    7.2331    0.6160    0.0000 F   0  0  0  0  0  0  0  0  0  0  0  0
    8.2331   -1.1160    0.0000 F   0  0  0  0  0  0  0  0  0  0  0  0
    8.0991    1.1160    0.0000 F   0  0  0  0  0  0  0  0  0  0  0  0
    9.0991   -0.6160    0.0000 F   0  0  0  0  0  0  0  0  0  0  0  0
    6.3671    0.1160    0.0000 F   0  0  0  0  0  0  0  0  0  0  0  0
    7.3671   -1.6160    0.0000 F   0  0  0  0  0  0  0  0  0  0  0  0
    9.9651   -0.1160    0.0000 F   0  0  0  0  0  0  0  0  0  0  0  0
    8.9651    1.6160    0.0000 F   0  0  0  0  0  0  0  0  0  0  0  0
    5.5010   -0.3840    0.0000 F   0  0  0  0  0  0  0  0  0  0  0  0
    6.5010   -2.1160    0.0000 F   0  0  0  0  0  0  0  0  0  0  0  0
   10.8312    0.3840    0.0000 F   0  0  0  0  0  0  0  0  0  0  0  0
    9.8312    2.1160    0.0000 F   0  0  0  0  0  0  0  0  0  0  0  0
    4.6350   -0.8840    0.0000 F   0  0  0  0  0  0  0  0  0  0  0  0
    5.6350   -2.6160    0.0000 F   0  0  0  0  0  0  0  0  0  0  0  0
   11.6972    0.8840    0.0000 F   0  0  0  0  0  0  0  0  0  0  0  0
   10.6972    2.6160    0.0000 F   0  0  0  0  0  0  0  0  0  0  0  0
    3.7690   -1.3840    0.0000 F   0  0  0  0  0  0  0  0  0  0  0  0
    4.7690   -3.1160    0.0000 F   0  0  0  0  0  0  0  0  0  0  0  0
   12.5632    1.3840    0.0000 F   0  0  0  0  0  0  0  0  0  0  0  0
   11.5632    3.1160    0.0000 F   0  0  0  0  0  0  0  0  0  0  0  0
   13.7953    3.2500    0.0000 F   0  0  0  0  0  0  0  0  0  0  0  0
   13.4292    1.8840    0.0000 F   0  0  0  0  0  0  0  0  0  0  0  0
   12.4292    3.6160    0.0000 F   0  0  0  0  0  0  0  0  0  0  0  0
    2.5369   -3.2500    0.0000 O   0  0  0  0  0  0  0  0  0  0  0  0
    2.9030   -1.8840    0.0000 O   0  0  0  0  0  0  0  0  0  0  0  0
    3.9030   -3.6160    0.0000 O   0  0  0  0  0  0  0  0  0  0  0  0
    7.7331   -0.2500    0.0000 C   0  0  0  0  0  0  0  0  0  0  0  0
    8.5991    0.2500    0.0000 C   0  0  0  0  0  0  0  0  0  0  0  0
    6.8671   -0.7500    0.0000 C   0  0  0  0  0  0  0  0  0  0  0  0
    9.4651    0.7500    0.0000 C   0  0  0  0  0  0  0  0  0  0  0  0
    6.0010   -1.2500    0.0000 C   0  0  0  0  0  0  0  0  0  0  0  0
   10.3312    1.2500    0.0000 C   0  0  0  0  0  0  0  0  0  0  0  0
    5.1350   -1.7500    0.0000 C   0  0  0  0  0  0  0  0  0  0  0  0
   11.1972    1.7500    0.0000 C   0  0  0  0  0  0  0  0  0  0  0  0
    4.2690   -2.2500    0.0000 C   0  0  0  0  0  0  0  0  0  0  0  0
   12.0632    2.2500    0.0000 C   0  0  0  0  0  0  0  0  0  0  0  0
   12.9292    2.7500    0.0000 C   0  0  0  0  0  0  0  0  0  0  0  0
    2.0000   -2.9400    0.0000 H   0  0  0  0  0  0  0  0  0  0  0  0
  1 25  1  0  0  0  0
  1 26  2  0  0  0  0
  1 27  2  0  0  0  0
  1 36  1  0  0  0  0
  2 28  1  0  0  0  0
  3 28  1  0  0  0  0
  4 29  1  0  0  0  0
  5 29  1  0  0  0  0
  6 30  1  0  0  0  0
  7 30  1  0  0  0  0
  8 31  1  0  0  0  0
  9 31  1  0  0  0  0
 10 32  1  0  0  0  0
 11 32  1  0  0  0  0
 12 33  1  0  0  0  0
 13 33  1  0  0  0  0
 14 34  1  0  0  0  0
 15 34  1  0  0  0  0
 16 35  1  0  0  0  0
 17 35  1  0  0  0  0
 18 36  1  0  0  0  0
 19 36  1  0  0  0  0
 20 37  1  0  0  0  0
 21 37  1  0  0  0  0
 22 38  1  0  0  0  0
 23 38  1  0  0  0  0
 24 38  1  0  0  0  0
 25 39  1  0  0  0  0
 28 29  1  0  0  0  0
 28 30  1  0  0  0  0
 29 31  1  0  0  0  0
 30 32  1  0  0  0  0
 31 33  1  0  0  0  0
 32 34  1  0  0  0  0
 33 35  1  0  0  0  0
 34 36  1  0  0  0  0
 35 37  1  0  0  0  0
 37 38  1  0  0  0  0
M  END
> <PUBCHEM_COMPOUND_CID>
22141518

> <PUBCHEM_COMPOUND_CANONICALIZED>
1

> <PUBCHEM_CACTVS_COMPLEXITY>
999

> <PUBCHEM_CACTVS_HBOND_ACCEPTOR>
26

> <PUBCHEM_CACTVS_HBOND_DONOR>
1

> <PUBCHEM_CACTVS_ROTATABLE_BOND>
10

> <PUBCHEM_CACTVS_SUBSKEYS>
AAADcQBwMcBAAAAAAAAAAAAAAAAAAAAAAAAAAAAAAAAAAAAAAAAACQQACAAACAAAQBAAAAAAAIIAAAAAAHBAAAAAAAAAAAAAAAAAAAIAAAAAAAAAAAAAAAEAgIAAAAAAAAAAAAAAAAAAAAAAAAAAAAAAAA==

> <PUBCHEM_IUPAC_OPENEYE_NAME>
1,1,2,2,3,3,4,4,5,5,6,6,7,7,8,8,9,9,10,10,11,11,11-tricosafluoroundecane-1-sulfonic acid

> <PUBCHEM_IUPAC_CAS_NAME>
1,1,2,2,3,3,4,4,5,5,6,6,7,7,8,8,9,9,10,10,11,11,11-tricosafluoro-1-undecanesulfonic acid

> <PUBCHEM_IUPAC_NAME_MARKUP>
1,1,2,2,3,3,4,4,5,5,6,6,7,7,8,8,9,9,10,10,11,11,11-tricosafluoroundecane-1-sulfonic acid

> <PUBCHEM_IUPAC_NAME>
1,1,2,2,3,3,4,4,5,5,6,6,7,7,8,8,9,9,10,10,11,11,11-tricosafluoroundecane-1-sulfonic acid

> <PUBCHEM_IUPAC_SYSTEMATIC_NAME>
1,1,2,2,3,3,4,4,5,5,6,6,7,7,8,8,9,9,10,10,11,11,11-tricosakis(fluoranyl)undecane-1-sulfonic acid

> <PUBCHEM_IUPAC_TRADITIONAL_NAME>
1,1,2,2,3,3,4,4,5,5,6,6,7,7,8,8,9,9,10,10,11,11,11-tricosafluoroundecane-1-sulfonic acid

> <PUBCHEM_IUPAC_INCHI>
InChI=1S/C11HF23O3S/c12-1(13,2(14,15)4(18,19)6(22,23)8(26,27)10(30,31)32)3(16,17)5(20,21)7(24,25)9(28,29)11(33,34)38(35,36)37/h(H,35,36,37)

> <PUBCHEM_IUPAC_INCHIKEY>
UKHUPOMCGUFNAP-UHFFFAOYSA-N

> <PUBCHEM_XLOGP3_AA>
7

> <PUBCHEM_EXACT_MASS>
649.9279128

> <PUBCHEM_MOLECULAR_FORMULA>
C11HF23O3S

> <PUBCHEM_MOLECULAR_WEIGHT>
650.15

> <PUBCHEM_SMILES>
C(C(C(C(C(C(F)(F)F)(F)F)(F)F)(F)F)(F)F)(C(C(C(C(C(F)(F)S(=O)(=O)O)(F)F)(F)F)(F)F)(F)F)(F)F

> <PUBCHEM_CONNECTIVITY_SMILES>
C(C(C(C(C(C(F)(F)F)(F)F)(F)F)(F)F)(F)F)(C(C(C(C(C(F)(F)S(=O)(=O)O)(F)F)(F)F)(F)F)(F)F)(F)F

> <PUBCHEM_CACTVS_TPSA>
62.8

> <PUBCHEM_MONOISOTOPIC_WEIGHT>
649.9279128

> <PUBCHEM_TOTAL_CHARGE>
0

> <PUBCHEM_HEAVY_ATOM_COUNT>
38

> <PUBCHEM_ATOM_DEF_STEREO_COUNT>
0

> <PUBCHEM_ATOM_UDEF_STEREO_COUNT>
0

> <PUBCHEM_BOND_DEF_STEREO_COUNT>
0

> <PUBCHEM_BOND_UDEF_STEREO_COUNT>
0

> <PUBCHEM_ISOTOPIC_ATOM_COUNT>
0

> <PUBCHEM_COMPONENT_COUNT>
1

> <PUBCHEM_CACTVS_TAUTO_COUNT>
-1

> <PUBCHEM_COORDINATE_TYPE>
1
5
255

$$$$
