22186544
  -OEChem-05122609522D

 84 87  0     0  0  0  0  0  0999 V2000
   10.6603   -0.2500    0.0000 O   0  0  0  0  0  0  0  0  0  0  0  0
    8.9282    3.7500    0.0000 O   0  0  0  0  0  0  0  0  0  0  0  0
   10.6603   -5.2500    0.0000 O   0  0  0  0  0  0  0  0  0  0  0  0
    3.7321    2.7500    0.0000 O   0  0  0  0  0  0  0  0  0  0  0  0
    8.0622   -1.7500    0.0000 O   0  0  0  0  0  0  0  0  0  0  0  0
    2.8660   -0.7500    0.0000 O   0  0  0  0  0  0  0  0  0  0  0  0
   12.3923   -0.2500    0.0000 O   0  0  0  0  0  0  0  0  0  0  0  0
    8.0622    5.2500    0.0000 O   0  0  0  0  0  0  0  0  0  0  0  0
   12.3923   -5.2500    0.0000 O   0  0  0  0  0  0  0  0  0  0  0  0
    4.5981    1.2500    0.0000 O   0  0  0  0  0  0  0  0  0  0  0  0
    7.1962   -3.2500    0.0000 O   0  0  0  0  0  0  0  0  0  0  0  0
    3.7321    0.7500    0.0000 O   0  0  0  0  0  0  0  0  0  0  0  0
    9.7942    1.2500    0.0000 C   0  0  0  0  0  0  0  0  0  0  0  0
    9.7942    2.2500    0.0000 C   0  0  0  0  0  0  0  0  0  0  0  0
    9.7942   -3.7500    0.0000 C   0  0  0  0  0  0  0  0  0  0  0  0
    8.9282   -3.2500    0.0000 C   0  0  0  0  0  0  0  0  0  0  0  0
    2.8660    1.2500    0.0000 C   0  0  0  0  0  0  0  0  0  0  0  0
    2.0000    0.7500    0.0000 C   0  0  0  0  0  0  0  0  0  0  0  0
   10.6603    0.7500    0.0000 C   0  0  0  0  0  0  0  0  0  0  0  0
    8.9282    2.7500    0.0000 C   0  0  0  0  0  0  0  0  0  0  0  0
    9.7942   -4.7500    0.0000 C   0  0  0  0  0  0  0  0  0  0  0  0
    8.9282   -2.2500    0.0000 C   0  0  0  0  0  0  0  0  0  0  0  0
    2.8660    2.2500    0.0000 C   0  0  0  0  0  0  0  0  0  0  0  0
    2.0000   -0.2500    0.0000 C   0  0  0  0  0  0  0  0  0  0  0  0
   11.5263   -1.7500    0.0000 C   0  0  0  0  0  0  0  0  0  0  0  0
   11.5263   -3.7500    0.0000 C   0  0  0  0  0  0  0  0  0  0  0  0
    7.1962    3.7500    0.0000 C   0  0  0  0  0  0  0  0  0  0  0  0
    5.4641    2.7500    0.0000 C   0  0  0  0  0  0  0  0  0  0  0  0
    6.3301   -1.7500    0.0000 C   0  0  0  0  0  0  0  0  0  0  0  0
    4.5981   -0.7500    0.0000 C   0  0  0  0  0  0  0  0  0  0  0  0
   11.5263   -0.7500    0.0000 C   0  0  0  0  0  0  0  0  0  0  0  0
    8.0622    4.2500    0.0000 C   0  0  0  0  0  0  0  0  0  0  0  0
   11.5263   -4.7500    0.0000 C   0  0  0  0  0  0  0  0  0  0  0  0
    4.5981    2.2500    0.0000 C   0  0  0  0  0  0  0  0  0  0  0  0
    7.1962   -2.2500    0.0000 C   0  0  0  0  0  0  0  0  0  0  0  0
    3.7321   -0.2500    0.0000 C   0  0  0  0  0  0  0  0  0  0  0  0
   10.6603   -2.2500    0.0000 C   0  0  0  0  0  0  0  0  0  0  0  0
   10.6603   -3.2500    0.0000 C   0  0  0  0  0  0  0  0  0  0  0  0
    6.3282    4.2601    0.0000 C   0  0  0  0  0  0  0  0  0  0  0  0
    5.4563    3.7567    0.0000 C   0  0  0  0  0  0  0  0  0  0  0  0
    5.4622   -2.2601    0.0000 C   0  0  0  0  0  0  0  0  0  0  0  0
    4.5903   -1.7567    0.0000 C   0  0  0  0  0  0  0  0  0  0  0  0
   12.3923   -2.2500    0.0000 C   0  0  0  0  0  0  0  0  0  0  0  0
   12.3923   -3.2500    0.0000 C   0  0  0  0  0  0  0  0  0  0  0  0
    7.1962    2.7500    0.0000 C   0  0  0  0  0  0  0  0  0  0  0  0
    6.3301    2.2500    0.0000 C   0  0  0  0  0  0  0  0  0  0  0  0
    6.3301   -0.7500    0.0000 C   0  0  0  0  0  0  0  0  0  0  0  0
    5.4641   -0.2500    0.0000 C   0  0  0  0  0  0  0  0  0  0  0  0
    9.1837    1.3577    0.0000 H   0  0  0  0  0  0  0  0  0  0  0  0
    9.5822    0.6674    0.0000 H   0  0  0  0  0  0  0  0  0  0  0  0
   10.4048    2.1423    0.0000 H   0  0  0  0  0  0  0  0  0  0  0  0
   10.0063    2.8326    0.0000 H   0  0  0  0  0  0  0  0  0  0  0  0
   10.4048   -3.8577    0.0000 H   0  0  0  0  0  0  0  0  0  0  0  0
   10.0063   -3.1674    0.0000 H   0  0  0  0  0  0  0  0  0  0  0  0
    8.3176   -3.1423    0.0000 H   0  0  0  0  0  0  0  0  0  0  0  0
    8.7162   -3.8326    0.0000 H   0  0  0  0  0  0  0  0  0  0  0  0
    3.0781    0.6674    0.0000 H   0  0  0  0  0  0  0  0  0  0  0  0
    3.4766    1.3577    0.0000 H   0  0  0  0  0  0  0  0  0  0  0  0
    1.7880    1.3326    0.0000 H   0  0  0  0  0  0  0  0  0  0  0  0
    1.3894    0.6423    0.0000 H   0  0  0  0  0  0  0  0  0  0  0  0
   11.2708    0.6423    0.0000 H   0  0  0  0  0  0  0  0  0  0  0  0
   10.8723    1.3326    0.0000 H   0  0  0  0  0  0  0  0  0  0  0  0
    8.3176    2.8577    0.0000 H   0  0  0  0  0  0  0  0  0  0  0  0
    8.7162    2.1674    0.0000 H   0  0  0  0  0  0  0  0  0  0  0  0
    9.1837   -4.6423    0.0000 H   0  0  0  0  0  0  0  0  0  0  0  0
    9.5822   -5.3326    0.0000 H   0  0  0  0  0  0  0  0  0  0  0  0
    9.5388   -2.3577    0.0000 H   0  0  0  0  0  0  0  0  0  0  0  0
    9.1403   -1.6674    0.0000 H   0  0  0  0  0  0  0  0  0  0  0  0
    2.6540    2.8326    0.0000 H   0  0  0  0  0  0  0  0  0  0  0  0
    2.2554    2.1423    0.0000 H   0  0  0  0  0  0  0  0  0  0  0  0
    1.3894   -0.1423    0.0000 H   0  0  0  0  0  0  0  0  0  0  0  0
    1.7880   -0.8326    0.0000 H   0  0  0  0  0  0  0  0  0  0  0  0
   10.1233   -1.9400    0.0000 H   0  0  0  0  0  0  0  0  0  0  0  0
   10.1233   -3.5600    0.0000 H   0  0  0  0  0  0  0  0  0  0  0  0
    6.3306    4.8801    0.0000 H   0  0  0  0  0  0  0  0  0  0  0  0
    4.9182    4.0646    0.0000 H   0  0  0  0  0  0  0  0  0  0  0  0
    5.4646   -2.8801    0.0000 H   0  0  0  0  0  0  0  0  0  0  0  0
    4.0522   -2.0646    0.0000 H   0  0  0  0  0  0  0  0  0  0  0  0
   12.9292   -1.9400    0.0000 H   0  0  0  0  0  0  0  0  0  0  0  0
   12.9292   -3.5600    0.0000 H   0  0  0  0  0  0  0  0  0  0  0  0
    7.7331    2.4400    0.0000 H   0  0  0  0  0  0  0  0  0  0  0  0
    6.3301    1.6300    0.0000 H   0  0  0  0  0  0  0  0  0  0  0  0
    6.8671   -0.4400    0.0000 H   0  0  0  0  0  0  0  0  0  0  0  0
    5.4641    0.3700    0.0000 H   0  0  0  0  0  0  0  0  0  0  0  0
  1 19  1  0  0  0  0
  1 31  1  0  0  0  0
  2 20  1  0  0  0  0
  2 32  1  0  0  0  0
  3 21  1  0  0  0  0
  3 33  1  0  0  0  0
  4 23  1  0  0  0  0
  4 34  1  0  0  0  0
  5 22  1  0  0  0  0
  5 35  1  0  0  0  0
  6 24  1  0  0  0  0
  6 36  1  0  0  0  0
  7 31  2  0  0  0  0
  8 32  2  0  0  0  0
  9 33  2  0  0  0  0
 10 34  2  0  0  0  0
 11 35  2  0  0  0  0
 12 36  2  0  0  0  0
 13 14  1  0  0  0  0
 13 19  1  0  0  0  0
 13 49  1  0  0  0  0
 13 50  1  0  0  0  0
 14 20  1  0  0  0  0
 14 51  1  0  0  0  0
 14 52  1  0  0  0  0
 15 16  1  0  0  0  0
 15 21  1  0  0  0  0
 15 53  1  0  0  0  0
 15 54  1  0  0  0  0
 16 22  1  0  0  0  0
 16 55  1  0  0  0  0
 16 56  1  0  0  0  0
 17 18  1  0  0  0  0
 17 23  1  0  0  0  0
 17 57  1  0  0  0  0
 17 58  1  0  0  0  0
 18 24  1  0  0  0  0
 18 59  1  0  0  0  0
 18 60  1  0  0  0  0
 19 61  1  0  0  0  0
 19 62  1  0  0  0  0
 20 63  1  0  0  0  0
 20 64  1  0  0  0  0
 21 65  1  0  0  0  0
 21 66  1  0  0  0  0
 22 67  1  0  0  0  0
 22 68  1  0  0  0  0
 23 69  1  0  0  0  0
 23 70  1  0  0  0  0
 24 71  1  0  0  0  0
 24 72  1  0  0  0  0
 25 31  1  0  0  0  0
 25 37  2  0  0  0  0
 25 43  1  0  0  0  0
 26 33  1  0  0  0  0
 26 38  2  0  0  0  0
 26 44  1  0  0  0  0
 27 32  1  0  0  0  0
 27 39  2  0  0  0  0
 27 45  1  0  0  0  0
 28 34  1  0  0  0  0
 28 40  2  0  0  0  0
 28 46  1  0  0  0  0
 29 35  1  0  0  0  0
 29 41  2  0  0  0  0
 29 47  1  0  0  0  0
 30 36  1  0  0  0  0
 30 42  2  0  0  0  0
 30 48  1  0  0  0  0
 37 38  1  0  0  0  0
 37 73  1  0  0  0  0
 38 74  1  0  0  0  0
 39 40  1  0  0  0  0
 39 75  1  0  0  0  0
 40 76  1  0  0  0  0
 41 42  1  0  0  0  0
 41 77  1  0  0  0  0
 42 78  1  0  0  0  0
 43 44  2  0  0  0  0
 43 79  1  0  0  0  0
 44 80  1  0  0  0  0
 45 46  2  0  0  0  0
 45 81  1  0  0  0  0
 46 82  1  0  0  0  0
 47 48  2  0  0  0  0
 47 83  1  0  0  0  0
 48 84  1  0  0  0  0
M  END
> <PUBCHEM_COMPOUND_CID>
22186544

> <PUBCHEM_COMPOUND_CANONICALIZED>
1

> <PUBCHEM_CACTVS_COMPLEXITY>
848

> <PUBCHEM_CACTVS_HBOND_ACCEPTOR>
12

> <PUBCHEM_CACTVS_HBOND_DONOR>
0

> <PUBCHEM_CACTVS_ROTATABLE_BOND>
0

> <PUBCHEM_CACTVS_SUBSKEYS>
AAADcfB8PAAAAAAAAAAAAAAAAAAAAAAAAAAwYMAAAAAAAAABUAAAGgAAAAAADACgmAIwCIAABACIAiDSCAACAAAkAAAIiAEACMgIJjKANRiCMQAkwAEIqYfIyDCOQAAAAAAAAACAAAAAAAAAAAAAAAAAAA==

> <PUBCHEM_IUPAC_OPENEYE_NAME>
3,8,15,20,27,32-hexaoxatetracyclo[32.2.2.210,13.222,25]dotetraconta-1(37),10,12,22(40),23,25(39),34(38),35,41-nonaene-2,9,14,21,26,33-hexone

> <PUBCHEM_IUPAC_CAS_NAME>
3,8,15,20,27,32-hexaoxatetracyclo[32.2.2.210,13.222,25]dotetraconta-1(37),10,12,22(40),23,25(39),34(38),35,41-nonaene-2,9,14,21,26,33-hexone

> <PUBCHEM_IUPAC_NAME_MARKUP>
3,8,15,20,27,32-hexaoxatetracyclo[32.2.2.2<SUP>10,13</SUP>.2<SUP>22,25</SUP>]dotetraconta-1(37),10,12,22(40),23,25(39),34(38),35,41-nonaene-2,9,14,21,26,33-hexone

> <PUBCHEM_IUPAC_NAME>
3,8,15,20,27,32-hexaoxatetracyclo[32.2.2.210,13.222,25]dotetraconta-1(37),10,12,22(40),23,25(39),34(38),35,41-nonaene-2,9,14,21,26,33-hexone

> <PUBCHEM_IUPAC_SYSTEMATIC_NAME>
3,8,15,20,27,32-hexaoxatetracyclo[32.2.2.210,13.222,25]dotetraconta-1(37),10,12,22(40),23,25(39),34(38),35,41-nonaene-2,9,14,21,26,33-hexone

> <PUBCHEM_IUPAC_TRADITIONAL_NAME>
3,8,15,20,27,32-hexaoxatetracyclo[32.2.2.210,13.222,25]dotetraconta-1(37),10,12,22(40),23,25(39),34(38),35,41-nonaene-2,9,14,21,26,33-triquinone

> <PUBCHEM_IUPAC_INCHI>
InChI=1S/C36H36O12/c37-31-25-7-9-27(10-8-25)33(39)45-21-3-4-23-47-35(41)29-15-17-30(18-16-29)36(42)48-24-6-5-22-46-34(40)28-13-11-26(12-14-28)32(38)44-20-2-1-19-43-31/h7-18H,1-6,19-24H2

> <PUBCHEM_IUPAC_INCHIKEY>
HRNLXZWSSMMFMP-UHFFFAOYSA-N

> <PUBCHEM_XLOGP3_AA>
6.3

> <PUBCHEM_EXACT_MASS>
660.22067658

> <PUBCHEM_MOLECULAR_FORMULA>
C36H36O12

> <PUBCHEM_MOLECULAR_WEIGHT>
660.7

> <PUBCHEM_SMILES>
C1CCOC(=O)C2=CC=C(C=C2)C(=O)OCCCCOC(=O)C3=CC=C(C=C3)C(=O)OCCCCOC(=O)C4=CC=C(C=C4)C(=O)OC1

> <PUBCHEM_CONNECTIVITY_SMILES>
C1CCOC(=O)C2=CC=C(C=C2)C(=O)OCCCCOC(=O)C3=CC=C(C=C3)C(=O)OCCCCOC(=O)C4=CC=C(C=C4)C(=O)OC1

> <PUBCHEM_CACTVS_TPSA>
158

> <PUBCHEM_MONOISOTOPIC_WEIGHT>
660.22067658

> <PUBCHEM_TOTAL_CHARGE>
0

> <PUBCHEM_HEAVY_ATOM_COUNT>
48

> <PUBCHEM_ATOM_DEF_STEREO_COUNT>
0

> <PUBCHEM_ATOM_UDEF_STEREO_COUNT>
0

> <PUBCHEM_BOND_DEF_STEREO_COUNT>
0

> <PUBCHEM_BOND_UDEF_STEREO_COUNT>
0

> <PUBCHEM_ISOTOPIC_ATOM_COUNT>
0

> <PUBCHEM_COMPONENT_COUNT>
1

> <PUBCHEM_CACTVS_TAUTO_COUNT>
-1

> <PUBCHEM_COORDINATE_TYPE>
1
5
255

> <PUBCHEM_BONDANNOTATIONS>
25  37  8
25  43  8
26  38  8
26  44  8
27  39  8
27  45  8
28  40  8
28  46  8
29  41  8
29  47  8
30  42  8
30  48  8
37  38  8
39  40  8
41  42  8
43  44  8
45  46  8
47  48  8

$$$$
