22212722
  -OEChem-05122609512D

 38 37  0     1  0  0  0  0  0999 V2000
    9.2942    0.9610    0.0000 F   0  0  0  0  0  0  0  0  0  0  0  0
   10.6603    0.5950    0.0000 F   0  0  0  0  0  0  0  0  0  0  0  0
   10.2942   -0.7710    0.0000 F   0  0  0  0  0  0  0  0  0  0  0  0
    8.0622    1.0950    0.0000 O   0  0  0  0  0  0  0  0  0  0  0  0
    8.9282   -1.4050    0.0000 O   0  0  0  0  0  0  0  0  0  0  0  0
    6.3301    0.0950    0.0000 C   0  0  3  0  0  0  0  0  0  0  0  0
    5.4641   -0.4050    0.0000 C   0  0  0  0  0  0  0  0  0  0  0  0
    4.5981    0.0950    0.0000 C   0  0  0  0  0  0  0  0  0  0  0  0
    7.1962   -0.4050    0.0000 C   0  0  0  0  0  0  0  0  0  0  0  0
    3.7320   -0.4050    0.0000 C   0  0  0  0  0  0  0  0  0  0  0  0
    2.8660    0.0950    0.0000 C   0  0  0  0  0  0  0  0  0  0  0  0
    6.3301    1.0950    0.0000 C   0  0  0  0  0  0  0  0  0  0  0  0
    8.0622    0.0950    0.0000 C   0  0  3  0  0  0  0  0  0  0  0  0
    2.0000   -0.4050    0.0000 C   0  0  0  0  0  0  0  0  0  0  0  0
    2.8660    1.0950    0.0000 C   0  0  0  0  0  0  0  0  0  0  0  0
    8.9282   -0.4050    0.0000 C   0  0  0  0  0  0  0  0  0  0  0  0
    9.7942    0.0950    0.0000 C   0  0  0  0  0  0  0  0  0  0  0  0
    6.8671    0.4050    0.0000 H   0  0  0  0  0  0  0  0  0  0  0  0
    5.0656   -0.8799    0.0000 H   0  0  0  0  0  0  0  0  0  0  0  0
    5.8626   -0.8799    0.0000 H   0  0  0  0  0  0  0  0  0  0  0  0
    4.9966    0.5699    0.0000 H   0  0  0  0  0  0  0  0  0  0  0  0
    4.1996    0.5699    0.0000 H   0  0  0  0  0  0  0  0  0  0  0  0
    6.7976   -0.8799    0.0000 H   0  0  0  0  0  0  0  0  0  0  0  0
    7.5947   -0.8799    0.0000 H   0  0  0  0  0  0  0  0  0  0  0  0
    3.3335   -0.8799    0.0000 H   0  0  0  0  0  0  0  0  0  0  0  0
    4.1306   -0.8799    0.0000 H   0  0  0  0  0  0  0  0  0  0  0  0
    2.8660   -0.5250    0.0000 H   0  0  0  0  0  0  0  0  0  0  0  0
    6.9501    1.0950    0.0000 H   0  0  0  0  0  0  0  0  0  0  0  0
    6.3301    1.7150    0.0000 H   0  0  0  0  0  0  0  0  0  0  0  0
    5.7101    1.0950    0.0000 H   0  0  0  0  0  0  0  0  0  0  0  0
    7.5252    0.4050    0.0000 H   0  0  0  0  0  0  0  0  0  0  0  0
    1.6900    0.1319    0.0000 H   0  0  0  0  0  0  0  0  0  0  0  0
    1.4631   -0.7150    0.0000 H   0  0  0  0  0  0  0  0  0  0  0  0
    2.3100   -0.9419    0.0000 H   0  0  0  0  0  0  0  0  0  0  0  0
    3.4860    1.0950    0.0000 H   0  0  0  0  0  0  0  0  0  0  0  0
    2.8660    1.7150    0.0000 H   0  0  0  0  0  0  0  0  0  0  0  0
    2.2460    1.0950    0.0000 H   0  0  0  0  0  0  0  0  0  0  0  0
    7.5252    1.4050    0.0000 H   0  0  0  0  0  0  0  0  0  0  0  0
  1 17  1  0  0  0  0
  2 17  1  0  0  0  0
  3 17  1  0  0  0  0
  4 13  1  0  0  0  0
  4 38  1  0  0  0  0
  5 16  2  0  0  0  0
  6  7  1  0  0  0  0
  6  9  1  0  0  0  0
  6 12  1  0  0  0  0
  6 18  1  0  0  0  0
  7  8  1  0  0  0  0
  7 19  1  0  0  0  0
  7 20  1  0  0  0  0
  8 10  1  0  0  0  0
  8 21  1  0  0  0  0
  8 22  1  0  0  0  0
  9 13  1  0  0  0  0
  9 23  1  0  0  0  0
  9 24  1  0  0  0  0
 10 11  1  0  0  0  0
 10 25  1  0  0  0  0
 10 26  1  0  0  0  0
 11 14  1  0  0  0  0
 11 15  1  0  0  0  0
 11 27  1  0  0  0  0
 12 28  1  0  0  0  0
 12 29  1  0  0  0  0
 12 30  1  0  0  0  0
 13 16  1  0  0  0  0
 13 31  1  0  0  0  0
 14 32  1  0  0  0  0
 14 33  1  0  0  0  0
 14 34  1  0  0  0  0
 15 35  1  0  0  0  0
 15 36  1  0  0  0  0
 15 37  1  0  0  0  0
 16 17  1  0  0  0  0
M  END
> <PUBCHEM_COMPOUND_CID>
22212722

> <PUBCHEM_COMPOUND_CANONICALIZED>
1

> <PUBCHEM_CACTVS_COMPLEXITY>
236

> <PUBCHEM_CACTVS_HBOND_ACCEPTOR>
5

> <PUBCHEM_CACTVS_HBOND_DONOR>
1

> <PUBCHEM_CACTVS_ROTATABLE_BOND>
7

> <PUBCHEM_CACTVS_SUBSKEYS>
AAADceBwMYAAAAAAAAAAAAAAAAAAAAAAAAAAAAAAAAAAAAAAAAAAGwAACAAADRSggBICAAAAAgAIAIAQAAIAAAAAAAAAAAFAAAAAEBIAAAAAQAAEAAAAAAGIyOCOAAAAAAAAAAAAAAAAAAAAAAAAAAAAAA==

> <PUBCHEM_IUPAC_OPENEYE_NAME>
1,1,1-trifluoro-3-hydroxy-5,9-dimethyl-decan-2-one

> <PUBCHEM_IUPAC_CAS_NAME>
1,1,1-trifluoro-3-hydroxy-5,9-dimethyl-2-decanone

> <PUBCHEM_IUPAC_NAME_MARKUP>
1,1,1-trifluoro-3-hydroxy-5,9-dimethyldecan-2-one

> <PUBCHEM_IUPAC_NAME>
1,1,1-trifluoro-3-hydroxy-5,9-dimethyldecan-2-one

> <PUBCHEM_IUPAC_SYSTEMATIC_NAME>
1,1,1-tris(fluoranyl)-5,9-dimethyl-3-oxidanyl-decan-2-one

> <PUBCHEM_IUPAC_TRADITIONAL_NAME>
1,1,1-trifluoro-3-hydroxy-5,9-dimethyl-decan-2-one

> <PUBCHEM_IUPAC_INCHI>
InChI=1S/C12H21F3O2/c1-8(2)5-4-6-9(3)7-10(16)11(17)12(13,14)15/h8-10,16H,4-7H2,1-3H3

> <PUBCHEM_IUPAC_INCHIKEY>
CAGDQPWPLBVGPJ-UHFFFAOYSA-N

> <PUBCHEM_XLOGP3_AA>
4.6

> <PUBCHEM_EXACT_MASS>
254.14936439

> <PUBCHEM_MOLECULAR_FORMULA>
C12H21F3O2

> <PUBCHEM_MOLECULAR_WEIGHT>
254.29

> <PUBCHEM_SMILES>
CC(C)CCCC(C)CC(C(=O)C(F)(F)F)O

> <PUBCHEM_CONNECTIVITY_SMILES>
CC(C)CCCC(C)CC(C(=O)C(F)(F)F)O

> <PUBCHEM_CACTVS_TPSA>
37.3

> <PUBCHEM_MONOISOTOPIC_WEIGHT>
254.14936439

> <PUBCHEM_TOTAL_CHARGE>
0

> <PUBCHEM_HEAVY_ATOM_COUNT>
17

> <PUBCHEM_ATOM_DEF_STEREO_COUNT>
0

> <PUBCHEM_ATOM_UDEF_STEREO_COUNT>
2

> <PUBCHEM_BOND_DEF_STEREO_COUNT>
0

> <PUBCHEM_BOND_UDEF_STEREO_COUNT>
0

> <PUBCHEM_ISOTOPIC_ATOM_COUNT>
0

> <PUBCHEM_COMPONENT_COUNT>
1

> <PUBCHEM_CACTVS_TAUTO_COUNT>
-1

> <PUBCHEM_COORDINATE_TYPE>
1
5
255

> <PUBCHEM_BONDANNOTATIONS>
13  4  3
6  12  3

$$$$
