22213
  -OEChem-05122609522D

 29 29  0     1  0  0  0  0  0999 V2000
    5.9641   -3.4330    0.0000 O   0  0  0  0  0  0  0  0  0  0  0  0
    4.5981   -1.0670    0.0000 O   0  0  0  0  0  0  0  0  0  0  0  0
    5.4641   -2.5670    0.0000 C   0  0  3  0  0  0  0  0  0  0  0  0
    6.4641   -2.5670    0.0000 C   0  0  0  0  0  0  0  0  0  0  0  0
    4.5981   -2.0670    0.0000 C   0  0  0  0  0  0  0  0  0  0  0  0
    3.7321    0.4330    0.0000 C   0  0  0  0  0  0  0  0  0  0  0  0
    2.8660    0.9330    0.0000 C   0  0  0  0  0  0  0  0  0  0  0  0
    3.7321   -0.5670    0.0000 C   0  0  0  0  0  0  0  0  0  0  0  0
    2.8660    1.9330    0.0000 C   0  0  0  0  0  0  0  0  0  0  0  0
    2.0000    2.4330    0.0000 C   0  0  0  0  0  0  0  0  0  0  0  0
    2.0000    3.4330    0.0000 C   0  0  0  0  0  0  0  0  0  0  0  0
    5.0257   -3.0054    0.0000 H   0  0  0  0  0  0  0  0  0  0  0  0
    7.0467   -2.7790    0.0000 H   0  0  0  0  0  0  0  0  0  0  0  0
    6.5718   -1.9564    0.0000 H   0  0  0  0  0  0  0  0  0  0  0  0
    3.9875   -1.9593    0.0000 H   0  0  0  0  0  0  0  0  0  0  0  0
    4.3860   -2.6496    0.0000 H   0  0  0  0  0  0  0  0  0  0  0  0
    4.3426    0.3254    0.0000 H   0  0  0  0  0  0  0  0  0  0  0  0
    3.9441    1.0156    0.0000 H   0  0  0  0  0  0  0  0  0  0  0  0
    2.2554    1.0407    0.0000 H   0  0  0  0  0  0  0  0  0  0  0  0
    2.6540    0.3504    0.0000 H   0  0  0  0  0  0  0  0  0  0  0  0
    3.1215   -0.4593    0.0000 H   0  0  0  0  0  0  0  0  0  0  0  0
    3.5200   -1.1496    0.0000 H   0  0  0  0  0  0  0  0  0  0  0  0
    3.4766    1.8254    0.0000 H   0  0  0  0  0  0  0  0  0  0  0  0
    3.0781    2.5156    0.0000 H   0  0  0  0  0  0  0  0  0  0  0  0
    1.3894    2.5407    0.0000 H   0  0  0  0  0  0  0  0  0  0  0  0
    1.7880    1.8504    0.0000 H   0  0  0  0  0  0  0  0  0  0  0  0
    2.6200    3.4330    0.0000 H   0  0  0  0  0  0  0  0  0  0  0  0
    2.0000    4.0530    0.0000 H   0  0  0  0  0  0  0  0  0  0  0  0
    1.3800    3.4330    0.0000 H   0  0  0  0  0  0  0  0  0  0  0  0
  1  3  1  0  0  0  0
  1  4  1  0  0  0  0
  2  5  1  0  0  0  0
  2  8  1  0  0  0  0
  3  4  1  0  0  0  0
  3  5  1  0  0  0  0
  3 12  1  0  0  0  0
  4 13  1  0  0  0  0
  4 14  1  0  0  0  0
  5 15  1  0  0  0  0
  5 16  1  0  0  0  0
  6  7  1  0  0  0  0
  6  8  1  0  0  0  0
  6 17  1  0  0  0  0
  6 18  1  0  0  0  0
  7  9  1  0  0  0  0
  7 19  1  0  0  0  0
  7 20  1  0  0  0  0
  8 21  1  0  0  0  0
  8 22  1  0  0  0  0
  9 10  1  0  0  0  0
  9 23  1  0  0  0  0
  9 24  1  0  0  0  0
 10 11  1  0  0  0  0
 10 25  1  0  0  0  0
 10 26  1  0  0  0  0
 11 27  1  0  0  0  0
 11 28  1  0  0  0  0
 11 29  1  0  0  0  0
M  END
> <PUBCHEM_COMPOUND_CID>
22213

> <PUBCHEM_COMPOUND_CANONICALIZED>
1

> <PUBCHEM_CACTVS_COMPLEXITY>
93.6

> <PUBCHEM_CACTVS_HBOND_ACCEPTOR>
2

> <PUBCHEM_CACTVS_HBOND_DONOR>
0

> <PUBCHEM_CACTVS_ROTATABLE_BOND>
7

> <PUBCHEM_CACTVS_SUBSKEYS>
AAADceBwMAAAAAAAAAAAAAAAEgAAAAAAAAAAAAAAAAAAAAAAAAAAGgAAAAAACBSggAICAAAABAAAAAAAAAAAAAAAAAAAAAAAAAABAAIAAAACAAAFAAACAAGAQAAAAAAAAAAAAAAAAAAAAAAAAAAAAAAAAA==

> <PUBCHEM_IUPAC_OPENEYE_NAME>
2-(hexoxymethyl)oxirane

> <PUBCHEM_IUPAC_CAS_NAME>
2-(hexoxymethyl)oxirane

> <PUBCHEM_IUPAC_NAME_MARKUP>
2-(hexoxymethyl)oxirane

> <PUBCHEM_IUPAC_NAME>
2-(hexoxymethyl)oxirane

> <PUBCHEM_IUPAC_SYSTEMATIC_NAME>
2-(hexoxymethyl)oxirane

> <PUBCHEM_IUPAC_TRADITIONAL_NAME>
2-(hexoxymethyl)oxirane

> <PUBCHEM_IUPAC_INCHI>
InChI=1S/C9H18O2/c1-2-3-4-5-6-10-7-9-8-11-9/h9H,2-8H2,1H3

> <PUBCHEM_IUPAC_INCHIKEY>
JPEGUDKOYOIOOP-UHFFFAOYSA-N

> <PUBCHEM_XLOGP3_AA>
2.1

> <PUBCHEM_EXACT_MASS>
158.130679813

> <PUBCHEM_MOLECULAR_FORMULA>
C9H18O2

> <PUBCHEM_MOLECULAR_WEIGHT>
158.24

> <PUBCHEM_SMILES>
CCCCCCOCC1CO1

> <PUBCHEM_CONNECTIVITY_SMILES>
CCCCCCOCC1CO1

> <PUBCHEM_CACTVS_TPSA>
21.8

> <PUBCHEM_MONOISOTOPIC_WEIGHT>
158.130679813

> <PUBCHEM_TOTAL_CHARGE>
0

> <PUBCHEM_HEAVY_ATOM_COUNT>
11

> <PUBCHEM_ATOM_DEF_STEREO_COUNT>
0

> <PUBCHEM_ATOM_UDEF_STEREO_COUNT>
1

> <PUBCHEM_BOND_DEF_STEREO_COUNT>
0

> <PUBCHEM_BOND_UDEF_STEREO_COUNT>
0

> <PUBCHEM_ISOTOPIC_ATOM_COUNT>
0

> <PUBCHEM_COMPONENT_COUNT>
1

> <PUBCHEM_CACTVS_TAUTO_COUNT>
-1

> <PUBCHEM_COORDINATE_TYPE>
1
5
255

> <PUBCHEM_BONDANNOTATIONS>
3  5  3

$$$$
