22217283
  -OEChem-05122610012D

 59 61  0     1  0  0  0  0  0999 V2000
    2.4900   -2.4134    0.0000 O   0  0  0  0  0  0  0  0  0  0  0  0
    3.9999   -3.2620    0.0000 O   0  0  0  0  0  0  0  0  0  0  0  0
    4.8738    0.0046    0.0000 C   0  0  2  0  0  0  0  0  0  0  0  0
    5.7398    0.5046    0.0000 C   0  0  2  0  0  0  0  0  0  0  0  0
    4.8738   -0.9954    0.0000 C   0  0  2  0  0  0  0  0  0  0  0  0
    6.6058    0.0046    0.0000 C   0  0  1  0  0  0  0  0  0  0  0  0
    3.9798   -1.5300    0.0000 C   0  0  2  0  0  0  0  0  0  0  0  0
    5.7398   -1.4954    0.0000 C   0  0  0  0  0  0  0  0  0  0  0  0
    3.9798    0.5393    0.0000 C   0  0  0  0  0  0  0  0  0  0  0  0
    6.6058   -0.9954    0.0000 C   0  0  0  0  0  0  0  0  0  0  0  0
    5.7238    1.5461    0.0000 C   0  0  0  0  0  0  0  0  0  0  0  0
    7.5158    0.5115    0.0000 C   0  0  0  0  0  0  0  0  0  0  0  0
    7.5239    1.5531    0.0000 C   0  0  1  0  0  0  0  0  0  0  0  0
    6.6218    2.0739    0.0000 C   0  0  0  0  0  0  0  0  0  0  0  0
    3.0738   -1.0162    0.0000 C   0  0  0  0  0  0  0  0  0  0  0  0
    3.0738    0.0254    0.0000 C   0  0  0  0  0  0  0  0  0  0  0  0
    4.8738    1.0046    0.0000 C   0  0  0  0  0  0  0  0  0  0  0  0
    4.4898   -2.3902    0.0000 C   0  0  0  0  0  0  0  0  0  0  0  0
    8.0272    2.4172    0.0000 C   0  0  0  0  0  0  0  0  0  0  0  0
    3.4899   -2.4018    0.0000 C   0  0  0  0  0  0  0  0  0  0  0  0
    8.5239    1.5492    0.0000 C   0  0  0  0  0  0  0  0  0  0  0  0
    7.5305    3.2851    0.0000 C   0  0  0  0  0  0  0  0  0  0  0  0
    2.0000   -3.2851    0.0000 C   0  0  0  0  0  0  0  0  0  0  0  0
    6.4726    0.9353    0.0000 H   0  0  0  0  0  0  0  0  0  0  0  0
    4.8803   -1.8454    0.0000 H   0  0  0  0  0  0  0  0  0  0  0  0
    7.3387   -0.4260    0.0000 H   0  0  0  0  0  0  0  0  0  0  0  0
    5.3413   -1.9703    0.0000 H   0  0  0  0  0  0  0  0  0  0  0  0
    6.1383   -1.9703    0.0000 H   0  0  0  0  0  0  0  0  0  0  0  0
    4.3844    1.0091    0.0000 H   0  0  0  0  0  0  0  0  0  0  0  0
    3.5862    1.0183    0.0000 H   0  0  0  0  0  0  0  0  0  0  0  0
    6.8179   -1.5780    0.0000 H   0  0  0  0  0  0  0  0  0  0  0  0
    7.2164   -0.8877    0.0000 H   0  0  0  0  0  0  0  0  0  0  0  0
    5.5057    2.1265    0.0000 H   0  0  0  0  0  0  0  0  0  0  0  0
    5.1146    1.4306    0.0000 H   0  0  0  0  0  0  0  0  0  0  0  0
    7.7204   -0.0738    0.0000 H   0  0  0  0  0  0  0  0  0  0  0  0
    8.1275    0.6128    0.0000 H   0  0  0  0  0  0  0  0  0  0  0  0
    7.0191    2.5499    0.0000 H   0  0  0  0  0  0  0  0  0  0  0  0
    6.2208    2.5468    0.0000 H   0  0  0  0  0  0  0  0  0  0  0  0
    2.4629   -0.9101    0.0000 H   0  0  0  0  0  0  0  0  0  0  0  0
    2.8647   -1.5999    0.0000 H   0  0  0  0  0  0  0  0  0  0  0  0
    2.8647    0.6091    0.0000 H   0  0  0  0  0  0  0  0  0  0  0  0
    2.4629   -0.0807    0.0000 H   0  0  0  0  0  0  0  0  0  0  0  0
    5.4938    1.0046    0.0000 H   0  0  0  0  0  0  0  0  0  0  0  0
    4.8738    1.6246    0.0000 H   0  0  0  0  0  0  0  0  0  0  0  0
    4.2538    1.0046    0.0000 H   0  0  0  0  0  0  0  0  0  0  0  0
    3.9565   -2.7064    0.0000 H   0  0  0  0  0  0  0  0  0  0  0  0
    4.8060   -2.9235    0.0000 H   0  0  0  0  0  0  0  0  0  0  0  0
    5.0231   -2.0740    0.0000 H   0  0  0  0  0  0  0  0  0  0  0  0
    8.5006    2.0168    0.0000 H   0  0  0  0  0  0  0  0  0  0  0  0
    8.5037    2.8139    0.0000 H   0  0  0  0  0  0  0  0  0  0  0  0
    8.5215    0.9292    0.0000 H   0  0  0  0  0  0  0  0  0  0  0  0
    9.1439    1.5468    0.0000 H   0  0  0  0  0  0  0  0  0  0  0  0
    8.5262    2.1692    0.0000 H   0  0  0  0  0  0  0  0  0  0  0  0
    8.0687    3.5930    0.0000 H   0  0  0  0  0  0  0  0  0  0  0  0
    7.2226    3.8232    0.0000 H   0  0  0  0  0  0  0  0  0  0  0  0
    6.9924    2.9772    0.0000 H   0  0  0  0  0  0  0  0  0  0  0  0
    1.4595   -2.9813    0.0000 H   0  0  0  0  0  0  0  0  0  0  0  0
    1.6962   -3.8256    0.0000 H   0  0  0  0  0  0  0  0  0  0  0  0
    2.5405   -3.5889    0.0000 H   0  0  0  0  0  0  0  0  0  0  0  0
  1 20  1  0  0  0  0
  1 23  1  0  0  0  0
  2 20  2  0  0  0  0
  3  4  1  0  0  0  0
  3  5  1  0  0  0  0
  3  9  1  0  0  0  0
  3 17  1  1  0  0  0
  4  6  1  0  0  0  0
  4 11  1  0  0  0  0
  4 24  1  6  0  0  0
  5  7  1  0  0  0  0
  5  8  1  0  0  0  0
  5 25  1  6  0  0  0
  6 10  1  0  0  0  0
  6 12  1  0  0  0  0
  6 26  1  1  0  0  0
  7 15  1  0  0  0  0
  7 18  1  1  0  0  0
  7 20  1  0  0  0  0
  8 10  1  0  0  0  0
  8 27  1  0  0  0  0
  8 28  1  0  0  0  0
  9 16  1  0  0  0  0
  9 29  1  0  0  0  0
  9 30  1  0  0  0  0
 10 31  1  0  0  0  0
 10 32  1  0  0  0  0
 11 14  1  0  0  0  0
 11 33  1  0  0  0  0
 11 34  1  0  0  0  0
 12 13  1  0  0  0  0
 12 35  1  0  0  0  0
 12 36  1  0  0  0  0
 13 14  1  0  0  0  0
 13 19  1  0  0  0  0
 13 21  1  6  0  0  0
 14 37  1  0  0  0  0
 14 38  1  0  0  0  0
 15 16  1  0  0  0  0
 15 39  1  0  0  0  0
 15 40  1  0  0  0  0
 16 41  1  0  0  0  0
 16 42  1  0  0  0  0
 17 43  1  0  0  0  0
 17 44  1  0  0  0  0
 17 45  1  0  0  0  0
 18 46  1  0  0  0  0
 18 47  1  0  0  0  0
 18 48  1  0  0  0  0
 19 22  1  0  0  0  0
 19 49  1  0  0  0  0
 19 50  1  0  0  0  0
 21 51  1  0  0  0  0
 21 52  1  0  0  0  0
 21 53  1  0  0  0  0
 22 54  1  0  0  0  0
 22 55  1  0  0  0  0
 22 56  1  0  0  0  0
 23 57  1  0  0  0  0
 23 58  1  0  0  0  0
 23 59  1  0  0  0  0
M  END
> <PUBCHEM_COMPOUND_CID>
22217283

> <PUBCHEM_COMPOUND_CANONICALIZED>
1

> <PUBCHEM_CACTVS_COMPLEXITY>
472

> <PUBCHEM_CACTVS_HBOND_ACCEPTOR>
2

> <PUBCHEM_CACTVS_HBOND_DONOR>
0

> <PUBCHEM_CACTVS_ROTATABLE_BOND>
3

> <PUBCHEM_CACTVS_SUBSKEYS>
AAADcfB4MAAAAAAAAAAAAAAAAAAAAAAAAAAwYMAAAAAAAADAAAAAGgAAAAAADwCAgAICCAAABAAIAACQCAAAAAAAAAAAAAEAAAAAABIAAAAAAAAEAAAAAAGIyPCPgAAAAAAAAACAAAQAACAAAAAAAAAAAA==

> <PUBCHEM_IUPAC_OPENEYE_NAME>
methyl (1R,4aR,4bS,7R,8aS,10aR)-7-ethyl-1,4a,7-trimethyl-3,4,4b,5,6,8,8a,9,10,10a-decahydro-2H-phenanthrene-1-carboxylate

> <PUBCHEM_IUPAC_CAS_NAME>
(1R,4aR,4bS,7R,8aS,10aR)-7-ethyl-1,4a,7-trimethyl-3,4,4b,5,6,8,8a,9,10,10a-decahydro-2H-phenanthrene-1-carboxylic acid methyl ester

> <PUBCHEM_IUPAC_NAME_MARKUP>
methyl (1<I>R</I>,4<I>a</I><I>R</I>,4<I>b</I><I>S</I>,7<I>R</I>,8<I>a</I><I>S</I>,10<I>a</I><I>R</I>)-7-ethyl-1,4<I>a</I>,7-trimethyl-3,4,4<I>b</I>,5,6,8,8<I>a</I>,9,10,10<I>a</I>-decahydro-2<I>H</I>-phenanthrene-1-carboxylate

> <PUBCHEM_IUPAC_NAME>
methyl (1R,4aR,4bS,7R,8aS,10aR)-7-ethyl-1,4a,7-trimethyl-3,4,4b,5,6,8,8a,9,10,10a-decahydro-2H-phenanthrene-1-carboxylate

> <PUBCHEM_IUPAC_SYSTEMATIC_NAME>
methyl (1R,4aR,4bS,7R,8aS,10aR)-7-ethyl-1,4a,7-trimethyl-3,4,4b,5,6,8,8a,9,10,10a-decahydro-2H-phenanthrene-1-carboxylate

> <PUBCHEM_IUPAC_TRADITIONAL_NAME>
(1R,4aR,4bS,7R,8aS,10aR)-7-ethyl-1,4a,7-trimethyl-3,4,4b,5,6,8,8a,9,10,10a-decahydro-2H-phenanthrene-1-carboxylic acid methyl ester

> <PUBCHEM_IUPAC_INCHI>
InChI=1S/C21H36O2/c1-6-19(2)13-10-16-15(14-19)8-9-17-20(16,3)11-7-12-21(17,4)18(22)23-5/h15-17H,6-14H2,1-5H3/t15-,16-,17+,19+,20+,21+/m0/s1

> <PUBCHEM_IUPAC_INCHIKEY>
MFVKHHMUIWTAHZ-CKUDZXNLSA-N

> <PUBCHEM_XLOGP3_AA>
7.1

> <PUBCHEM_EXACT_MASS>
320.271530387

> <PUBCHEM_MOLECULAR_FORMULA>
C21H36O2

> <PUBCHEM_MOLECULAR_WEIGHT>
320.5

> <PUBCHEM_SMILES>
CC[C@@]1(CC[C@H]2[C@H](C1)CC[C@@H]3[C@@]2(CCC[C@@]3(C)C(=O)OC)C)C

> <PUBCHEM_CONNECTIVITY_SMILES>
CCC1(CCC2C(C1)CCC3C2(CCCC3(C)C(=O)OC)C)C

> <PUBCHEM_CACTVS_TPSA>
26.3

> <PUBCHEM_MONOISOTOPIC_WEIGHT>
320.271530387

> <PUBCHEM_TOTAL_CHARGE>
0

> <PUBCHEM_HEAVY_ATOM_COUNT>
23

> <PUBCHEM_ATOM_DEF_STEREO_COUNT>
6

> <PUBCHEM_ATOM_UDEF_STEREO_COUNT>
0

> <PUBCHEM_BOND_DEF_STEREO_COUNT>
0

> <PUBCHEM_BOND_UDEF_STEREO_COUNT>
0

> <PUBCHEM_ISOTOPIC_ATOM_COUNT>
0

> <PUBCHEM_COMPONENT_COUNT>
1

> <PUBCHEM_CACTVS_TAUTO_COUNT>
-1

> <PUBCHEM_COORDINATE_TYPE>
1
5
255

> <PUBCHEM_BONDANNOTATIONS>
13  21  6
3  17  5
4  24  6
5  25  6
6  26  5
7  18  5

$$$$
