22249
  -OEChem-05122609182D

 24 25  0     0  0  0  0  0  0999 V2000
    4.0000    1.7808    0.0000 N   0  0  0  0  0  0  0  0  0  0  0  0
    3.0000    0.7808    0.0000 C   0  0  0  0  0  0  0  0  0  0  0  0
    3.0000    1.7808    0.0000 C   0  0  0  0  0  0  0  0  0  0  0  0
    4.0000    0.7808    0.0000 C   0  0  0  0  0  0  0  0  0  0  0  0
    3.0000   -0.2192    0.0000 C   0  0  0  0  0  0  0  0  0  0  0  0
    2.0000    0.7808    0.0000 C   0  0  0  0  0  0  0  0  0  0  0  0
    2.1340   -0.7192    0.0000 C   0  0  0  0  0  0  0  0  0  0  0  0
    3.8660   -0.7192    0.0000 C   0  0  0  0  0  0  0  0  0  0  0  0
    2.1340   -1.7192    0.0000 C   0  0  0  0  0  0  0  0  0  0  0  0
    3.8660   -1.7192    0.0000 C   0  0  0  0  0  0  0  0  0  0  0  0
    3.0000   -2.2192    0.0000 C   0  0  0  0  0  0  0  0  0  0  0  0
    3.0000    2.4008    0.0000 H   0  0  0  0  0  0  0  0  0  0  0  0
    2.3800    1.7808    0.0000 H   0  0  0  0  0  0  0  0  0  0  0  0
    4.0000    0.1608    0.0000 H   0  0  0  0  0  0  0  0  0  0  0  0
    4.6200    0.7808    0.0000 H   0  0  0  0  0  0  0  0  0  0  0  0
    4.4384    2.2192    0.0000 H   0  0  0  0  0  0  0  0  0  0  0  0
    2.0000    1.4008    0.0000 H   0  0  0  0  0  0  0  0  0  0  0  0
    1.3800    0.7808    0.0000 H   0  0  0  0  0  0  0  0  0  0  0  0
    2.0000    0.1608    0.0000 H   0  0  0  0  0  0  0  0  0  0  0  0
    1.5970   -0.4092    0.0000 H   0  0  0  0  0  0  0  0  0  0  0  0
    4.4030   -0.4092    0.0000 H   0  0  0  0  0  0  0  0  0  0  0  0
    1.5970   -2.0292    0.0000 H   0  0  0  0  0  0  0  0  0  0  0  0
    4.4030   -2.0292    0.0000 H   0  0  0  0  0  0  0  0  0  0  0  0
    3.0000   -2.8392    0.0000 H   0  0  0  0  0  0  0  0  0  0  0  0
  1  3  1  0  0  0  0
  1  4  1  0  0  0  0
  1 16  1  0  0  0  0
  2  3  1  0  0  0  0
  2  4  1  0  0  0  0
  2  5  1  0  0  0  0
  2  6  1  0  0  0  0
  3 12  1  0  0  0  0
  3 13  1  0  0  0  0
  4 14  1  0  0  0  0
  4 15  1  0  0  0  0
  5  7  2  0  0  0  0
  5  8  1  0  0  0  0
  6 17  1  0  0  0  0
  6 18  1  0  0  0  0
  6 19  1  0  0  0  0
  7  9  1  0  0  0  0
  7 20  1  0  0  0  0
  8 10  2  0  0  0  0
  8 21  1  0  0  0  0
  9 11  2  0  0  0  0
  9 22  1  0  0  0  0
 10 11  1  0  0  0  0
 10 23  1  0  0  0  0
 11 24  1  0  0  0  0
M  END
> <PUBCHEM_COMPOUND_CID>
22249

> <PUBCHEM_COMPOUND_CANONICALIZED>
1

> <PUBCHEM_CACTVS_COMPLEXITY>
132

> <PUBCHEM_CACTVS_HBOND_ACCEPTOR>
1

> <PUBCHEM_CACTVS_HBOND_DONOR>
1

> <PUBCHEM_CACTVS_ROTATABLE_BOND>
1

> <PUBCHEM_CACTVS_SUBSKEYS>
AAADccByAAAAAAAAAAAAAAAAAABYAAAAAAAwAAAAAAAAAAABAAAAHAAQAAAADgDBGAQyAILAAACAAiBCAAACAAAgAAAIiIAIAIgIICKAkRGEIAAggAAIiAcQgMAPgAAAAAAAAAAAAAAAAAAAAAAAAAAAAA==

> <PUBCHEM_IUPAC_OPENEYE_NAME>
3-methyl-3-phenyl-azetidine

> <PUBCHEM_IUPAC_CAS_NAME>
3-methyl-3-phenylazetidine

> <PUBCHEM_IUPAC_NAME_MARKUP>
3-methyl-3-phenylazetidine

> <PUBCHEM_IUPAC_NAME>
3-methyl-3-phenylazetidine

> <PUBCHEM_IUPAC_SYSTEMATIC_NAME>
3-methyl-3-phenyl-azetidine

> <PUBCHEM_IUPAC_TRADITIONAL_NAME>
3-methyl-3-phenyl-azetidine

> <PUBCHEM_IUPAC_INCHI>
InChI=1S/C10H13N/c1-10(7-11-8-10)9-5-3-2-4-6-9/h2-6,11H,7-8H2,1H3

> <PUBCHEM_IUPAC_INCHIKEY>
YOLLUMURPUEOJW-UHFFFAOYSA-N

> <PUBCHEM_XLOGP3_AA>
1.9

> <PUBCHEM_EXACT_MASS>
147.104799419

> <PUBCHEM_MOLECULAR_FORMULA>
C10H13N

> <PUBCHEM_MOLECULAR_WEIGHT>
147.22

> <PUBCHEM_SMILES>
CC1(CNC1)C2=CC=CC=C2

> <PUBCHEM_CONNECTIVITY_SMILES>
CC1(CNC1)C2=CC=CC=C2

> <PUBCHEM_CACTVS_TPSA>
12

> <PUBCHEM_MONOISOTOPIC_WEIGHT>
147.104799419

> <PUBCHEM_TOTAL_CHARGE>
0

> <PUBCHEM_HEAVY_ATOM_COUNT>
11

> <PUBCHEM_ATOM_DEF_STEREO_COUNT>
0

> <PUBCHEM_ATOM_UDEF_STEREO_COUNT>
0

> <PUBCHEM_BOND_DEF_STEREO_COUNT>
0

> <PUBCHEM_BOND_UDEF_STEREO_COUNT>
0

> <PUBCHEM_ISOTOPIC_ATOM_COUNT>
0

> <PUBCHEM_COMPONENT_COUNT>
1

> <PUBCHEM_CACTVS_TAUTO_COUNT>
-1

> <PUBCHEM_COORDINATE_TYPE>
1
5
255

> <PUBCHEM_BONDANNOTATIONS>
10  11  8
5  7  8
5  8  8
7  9  8
8  10  8
9  11  8

$$$$
