22319942
  -OEChem-01092608202D

 96101  0     0  0  0  0  0  0999 V2000
   17.2619    5.1962    0.0000 O   0  0  0  0  0  0  0  0  0  0  0  0
    6.2619   -5.1962    0.0000 O   0  0  0  0  0  0  0  0  0  0  0  0
   12.7619    0.8660    0.0000 O   0  0  0  0  0  0  0  0  0  0  0  0
   10.7619   -0.8660    0.0000 O   0  0  0  0  0  0  0  0  0  0  0  0
   14.2619   -0.0000    0.0000 O   0  0  0  0  0  0  0  0  0  0  0  0
    9.2619    0.0000    0.0000 O   0  0  0  0  0  0  0  0  0  0  0  0
   18.2619    3.4641    0.0000 N   0  0  0  0  0  0  0  0  0  0  0  0
    5.2619   -3.4641    0.0000 N   0  0  0  0  0  0  0  0  0  0  0  0
   18.8455    4.2688    0.0000 N   0  0  0  0  0  0  0  0  0  0  0  0
   18.8455    2.6594    0.0000 N   0  0  0  0  0  0  0  0  0  0  0  0
    4.6783   -2.6594    0.0000 N   0  0  0  0  0  0  0  0  0  0  0  0
    4.6783   -4.2688    0.0000 N   0  0  0  0  0  0  0  0  0  0  0  0
   15.2619    5.1962    0.0000 C   0  0  0  0  0  0  0  0  0  0  0  0
    8.2619   -5.1962    0.0000 C   0  0  0  0  0  0  0  0  0  0  0  0
   15.7619    4.3301    0.0000 C   0  0  0  0  0  0  0  0  0  0  0  0
    7.7619   -4.3301    0.0000 C   0  0  0  0  0  0  0  0  0  0  0  0
   14.7619    6.0622    0.0000 C   0  0  0  0  0  0  0  0  0  0  0  0
   14.3959    4.6962    0.0000 C   0  0  0  0  0  0  0  0  0  0  0  0
   16.1279    5.6962    0.0000 C   0  0  0  0  0  0  0  0  0  0  0  0
    8.7619   -6.0622    0.0000 C   0  0  0  0  0  0  0  0  0  0  0  0
    9.1279   -4.6962    0.0000 C   0  0  0  0  0  0  0  0  0  0  0  0
    7.3959   -5.6962    0.0000 C   0  0  0  0  0  0  0  0  0  0  0  0
   15.2619    3.4641    0.0000 C   0  0  0  0  0  0  0  0  0  0  0  0
    8.2619   -3.4641    0.0000 C   0  0  0  0  0  0  0  0  0  0  0  0
   16.7619    4.3301    0.0000 C   0  0  0  0  0  0  0  0  0  0  0  0
    6.7619   -4.3301    0.0000 C   0  0  0  0  0  0  0  0  0  0  0  0
   15.7619    2.5981    0.0000 C   0  0  0  0  0  0  0  0  0  0  0  0
    7.7619   -2.5981    0.0000 C   0  0  0  0  0  0  0  0  0  0  0  0
   17.2619    3.4641    0.0000 C   0  0  0  0  0  0  0  0  0  0  0  0
    6.2619   -3.4641    0.0000 C   0  0  0  0  0  0  0  0  0  0  0  0
   16.7619    2.5981    0.0000 C   0  0  0  0  0  0  0  0  0  0  0  0
    6.7619   -2.5981    0.0000 C   0  0  0  0  0  0  0  0  0  0  0  0
   15.2619    1.7321    0.0000 C   0  0  0  0  0  0  0  0  0  0  0  0
    8.2619   -1.7321    0.0000 C   0  0  0  0  0  0  0  0  0  0  0  0
   14.2619    1.7321    0.0000 C   0  0  0  0  0  0  0  0  0  0  0  0
    9.2619   -1.7321    0.0000 C   0  0  0  0  0  0  0  0  0  0  0  0
   13.7619    0.8660    0.0000 C   0  0  0  0  0  0  0  0  0  0  0  0
    9.7619   -0.8660    0.0000 C   0  0  0  0  0  0  0  0  0  0  0  0
   19.7917    3.9641    0.0000 C   0  0  0  0  0  0  0  0  0  0  0  0
   19.7917    2.9641    0.0000 C   0  0  0  0  0  0  0  0  0  0  0  0
    3.7321   -2.9641    0.0000 C   0  0  0  0  0  0  0  0  0  0  0  0
    3.7321   -3.9641    0.0000 C   0  0  0  0  0  0  0  0  0  0  0  0
   12.2619   -0.0000    0.0000 C   0  0  0  0  0  0  0  0  0  0  0  0
   11.2619    0.0000    0.0000 C   0  0  0  0  0  0  0  0  0  0  0  0
   20.6577    4.4641    0.0000 C   0  0  0  0  0  0  0  0  0  0  0  0
   20.6577    2.4641    0.0000 C   0  0  0  0  0  0  0  0  0  0  0  0
    2.8660   -2.4641    0.0000 C   0  0  0  0  0  0  0  0  0  0  0  0
    2.8660   -4.4641    0.0000 C   0  0  0  0  0  0  0  0  0  0  0  0
   21.5238    3.9641    0.0000 C   0  0  0  0  0  0  0  0  0  0  0  0
   21.5238    2.9641    0.0000 C   0  0  0  0  0  0  0  0  0  0  0  0
    2.0000   -2.9641    0.0000 C   0  0  0  0  0  0  0  0  0  0  0  0
    2.0000   -3.9641    0.0000 C   0  0  0  0  0  0  0  0  0  0  0  0
   15.2988    6.3722    0.0000 H   0  0  0  0  0  0  0  0  0  0  0  0
   14.4519    6.5991    0.0000 H   0  0  0  0  0  0  0  0  0  0  0  0
   14.2249    5.7522    0.0000 H   0  0  0  0  0  0  0  0  0  0  0  0
   14.0859    5.2331    0.0000 H   0  0  0  0  0  0  0  0  0  0  0  0
   13.8589    4.3862    0.0000 H   0  0  0  0  0  0  0  0  0  0  0  0
   14.7059    4.1592    0.0000 H   0  0  0  0  0  0  0  0  0  0  0  0
   16.4379    5.1592    0.0000 H   0  0  0  0  0  0  0  0  0  0  0  0
   16.6648    6.0062    0.0000 H   0  0  0  0  0  0  0  0  0  0  0  0
   15.8179    6.2331    0.0000 H   0  0  0  0  0  0  0  0  0  0  0  0
    8.2249   -6.3722    0.0000 H   0  0  0  0  0  0  0  0  0  0  0  0
    9.0719   -6.5991    0.0000 H   0  0  0  0  0  0  0  0  0  0  0  0
    9.2988   -5.7522    0.0000 H   0  0  0  0  0  0  0  0  0  0  0  0
    9.4379   -5.2331    0.0000 H   0  0  0  0  0  0  0  0  0  0  0  0
    9.6648   -4.3862    0.0000 H   0  0  0  0  0  0  0  0  0  0  0  0
    8.8179   -4.1592    0.0000 H   0  0  0  0  0  0  0  0  0  0  0  0
    7.0859   -5.1592    0.0000 H   0  0  0  0  0  0  0  0  0  0  0  0
    6.8589   -6.0062    0.0000 H   0  0  0  0  0  0  0  0  0  0  0  0
    7.7059   -6.2331    0.0000 H   0  0  0  0  0  0  0  0  0  0  0  0
   14.6419    3.4641    0.0000 H   0  0  0  0  0  0  0  0  0  0  0  0
    8.8819   -3.4641    0.0000 H   0  0  0  0  0  0  0  0  0  0  0  0
   17.0719    2.0611    0.0000 H   0  0  0  0  0  0  0  0  0  0  0  0
    6.4519   -2.0611    0.0000 H   0  0  0  0  0  0  0  0  0  0  0  0
   15.1542    1.1215    0.0000 H   0  0  0  0  0  0  0  0  0  0  0  0
   15.8445    1.5200    0.0000 H   0  0  0  0  0  0  0  0  0  0  0  0
    8.3695   -1.1215    0.0000 H   0  0  0  0  0  0  0  0  0  0  0  0
    7.6793   -1.5200    0.0000 H   0  0  0  0  0  0  0  0  0  0  0  0
   14.3695    2.3426    0.0000 H   0  0  0  0  0  0  0  0  0  0  0  0
   13.6793    1.9441    0.0000 H   0  0  0  0  0  0  0  0  0  0  0  0
    9.1542   -2.3426    0.0000 H   0  0  0  0  0  0  0  0  0  0  0  0
    9.8445   -1.9441    0.0000 H   0  0  0  0  0  0  0  0  0  0  0  0
   17.8819    5.1962    0.0000 H   0  0  0  0  0  0  0  0  0  0  0  0
    5.6419   -5.1962    0.0000 H   0  0  0  0  0  0  0  0  0  0  0  0
   12.1542   -0.6106    0.0000 H   0  0  0  0  0  0  0  0  0  0  0  0
   12.8445   -0.2121    0.0000 H   0  0  0  0  0  0  0  0  0  0  0  0
   11.3695    0.6106    0.0000 H   0  0  0  0  0  0  0  0  0  0  0  0
   10.6793    0.2121    0.0000 H   0  0  0  0  0  0  0  0  0  0  0  0
   20.6577    5.0841    0.0000 H   0  0  0  0  0  0  0  0  0  0  0  0
   20.6577    1.8441    0.0000 H   0  0  0  0  0  0  0  0  0  0  0  0
    2.8660   -1.8441    0.0000 H   0  0  0  0  0  0  0  0  0  0  0  0
    2.8660   -5.0841    0.0000 H   0  0  0  0  0  0  0  0  0  0  0  0
   22.0607    4.2741    0.0000 H   0  0  0  0  0  0  0  0  0  0  0  0
   22.0607    2.6541    0.0000 H   0  0  0  0  0  0  0  0  0  0  0  0
    1.4631   -2.6541    0.0000 H   0  0  0  0  0  0  0  0  0  0  0  0
    1.4631   -4.2741    0.0000 H   0  0  0  0  0  0  0  0  0  0  0  0
  1 25  1  0  0  0  0
  1 83  1  0  0  0  0
  2 26  1  0  0  0  0
  2 84  1  0  0  0  0
  3 37  1  0  0  0  0
  3 43  1  0  0  0  0
  4 38  1  0  0  0  0
  4 44  1  0  0  0  0
  5 37  2  0  0  0  0
  6 38  2  0  0  0  0
  7  9  1  0  0  0  0
  7 10  1  0  0  0  0
  7 29  1  0  0  0  0
  8 11  1  0  0  0  0
  8 12  1  0  0  0  0
  8 30  1  0  0  0  0
  9 39  2  0  0  0  0
 10 40  2  0  0  0  0
 11 41  2  0  0  0  0
 12 42  2  0  0  0  0
 13 15  1  0  0  0  0
 13 17  1  0  0  0  0
 13 18  1  0  0  0  0
 13 19  1  0  0  0  0
 14 16  1  0  0  0  0
 14 20  1  0  0  0  0
 14 21  1  0  0  0  0
 14 22  1  0  0  0  0
 15 23  1  0  0  0  0
 15 25  2  0  0  0  0
 16 24  1  0  0  0  0
 16 26  2  0  0  0  0
 17 53  1  0  0  0  0
 17 54  1  0  0  0  0
 17 55  1  0  0  0  0
 18 56  1  0  0  0  0
 18 57  1  0  0  0  0
 18 58  1  0  0  0  0
 19 59  1  0  0  0  0
 19 60  1  0  0  0  0
 19 61  1  0  0  0  0
 20 62  1  0  0  0  0
 20 63  1  0  0  0  0
 20 64  1  0  0  0  0
 21 65  1  0  0  0  0
 21 66  1  0  0  0  0
 21 67  1  0  0  0  0
 22 68  1  0  0  0  0
 22 69  1  0  0  0  0
 22 70  1  0  0  0  0
 23 27  2  0  0  0  0
 23 71  1  0  0  0  0
 24 28  2  0  0  0  0
 24 72  1  0  0  0  0
 25 29  1  0  0  0  0
 26 30  1  0  0  0  0
 27 31  1  0  0  0  0
 27 33  1  0  0  0  0
 28 32  1  0  0  0  0
 28 34  1  0  0  0  0
 29 31  2  0  0  0  0
 30 32  2  0  0  0  0
 31 73  1  0  0  0  0
 32 74  1  0  0  0  0
 33 35  1  0  0  0  0
 33 75  1  0  0  0  0
 33 76  1  0  0  0  0
 34 36  1  0  0  0  0
 34 77  1  0  0  0  0
 34 78  1  0  0  0  0
 35 37  1  0  0  0  0
 35 79  1  0  0  0  0
 35 80  1  0  0  0  0
 36 38  1  0  0  0  0
 36 81  1  0  0  0  0
 36 82  1  0  0  0  0
 39 40  1  0  0  0  0
 39 45  1  0  0  0  0
 40 46  1  0  0  0  0
 41 42  1  0  0  0  0
 41 47  1  0  0  0  0
 42 48  1  0  0  0  0
 43 44  1  0  0  0  0
 43 85  1  0  0  0  0
 43 86  1  0  0  0  0
 44 87  1  0  0  0  0
 44 88  1  0  0  0  0
 45 49  2  0  0  0  0
 45 89  1  0  0  0  0
 46 50  2  0  0  0  0
 46 90  1  0  0  0  0
 47 51  2  0  0  0  0
 47 91  1  0  0  0  0
 48 52  2  0  0  0  0
 48 92  1  0  0  0  0
 49 50  1  0  0  0  0
 49 93  1  0  0  0  0
 50 94  1  0  0  0  0
 51 52  1  0  0  0  0
 51 95  1  0  0  0  0
 52 96  1  0  0  0  0
M  END
> <PUBCHEM_COMPOUND_CID>
22319942

> <PUBCHEM_COMPOUND_CANONICALIZED>
1

> <PUBCHEM_CACTVS_COMPLEXITY>
1080

> <PUBCHEM_CACTVS_HBOND_ACCEPTOR>
10

> <PUBCHEM_CACTVS_HBOND_DONOR>
2

> <PUBCHEM_CACTVS_ROTATABLE_BOND>
15

> <PUBCHEM_CACTVS_SUBSKEYS>
AAADcfB/uAAAAAAAAAAAAAAAAAAAAWLAAAAwYMGAAAAAAFgB/gAAHgAICAAADgyhngIyzrAABgCqAyTySACSBAQgMgAYmCE1fJgLZrKSkZOCcABkyBEK2AeYyOCPoAACQAAIECBAAASAABAgQAAAAAAAAA==

> <PUBCHEM_IUPAC_OPENEYE_NAME>
2-[3-[3-(benzotriazol-2-yl)-5-tert-butyl-4-hydroxy-phenyl]propanoyloxy]ethyl 3-[3-(benzotriazol-2-yl)-5-tert-butyl-4-hydroxy-phenyl]propanoate

> <PUBCHEM_IUPAC_CAS_NAME>
3-[3-(2-benzotriazolyl)-5-tert-butyl-4-hydroxyphenyl]propanoic acid 2-[3-[3-(2-benzotriazolyl)-5-tert-butyl-4-hydroxyphenyl]-1-oxopropoxy]ethyl ester

> <PUBCHEM_IUPAC_NAME_MARKUP>
2-[3-[3-(benzotriazol-2-yl)-5-<I>tert</I>-butyl-4-hydroxyphenyl]propanoyloxy]ethyl 3-[3-(benzotriazol-2-yl)-5-<I>tert</I>-butyl-4-hydroxyphenyl]propanoate

> <PUBCHEM_IUPAC_NAME>
2-[3-[3-(benzotriazol-2-yl)-5-tert-butyl-4-hydroxyphenyl]propanoyloxy]ethyl 3-[3-(benzotriazol-2-yl)-5-tert-butyl-4-hydroxyphenyl]propanoate

> <PUBCHEM_IUPAC_SYSTEMATIC_NAME>
2-[3-[3-(benzotriazol-2-yl)-5-tert-butyl-4-oxidanyl-phenyl]propanoyloxy]ethyl 3-[3-(benzotriazol-2-yl)-5-tert-butyl-4-oxidanyl-phenyl]propanoate

> <PUBCHEM_IUPAC_TRADITIONAL_NAME>
3-[3-(benzotriazol-2-yl)-5-tert-butyl-4-hydroxy-phenyl]propionic acid 2-[3-[3-(benzotriazol-2-yl)-5-tert-butyl-4-hydroxy-phenyl]propanoyloxy]ethyl ester

> <PUBCHEM_IUPAC_INCHI>
InChI=1S/C40H44N6O6/c1-39(2,3)27-21-25(23-33(37(27)49)45-41-29-11-7-8-12-30(29)42-45)15-17-35(47)51-19-20-52-36(48)18-16-26-22-28(40(4,5)6)38(50)34(24-26)46-43-31-13-9-10-14-32(31)44-46/h7-14,21-24,49-50H,15-20H2,1-6H3

> <PUBCHEM_IUPAC_INCHIKEY>
WITVVAMVOACPCX-UHFFFAOYSA-N

> <PUBCHEM_XLOGP3_AA>
9.2

> <PUBCHEM_EXACT_MASS>
704.33223314

> <PUBCHEM_MOLECULAR_FORMULA>
C40H44N6O6

> <PUBCHEM_MOLECULAR_WEIGHT>
704.8

> <PUBCHEM_SMILES>
CC(C)(C)C1=C(C(=CC(=C1)CCC(=O)OCCOC(=O)CCC2=CC(=C(C(=C2)N3N=C4C=CC=CC4=N3)O)C(C)(C)C)N5N=C6C=CC=CC6=N5)O

> <PUBCHEM_CONNECTIVITY_SMILES>
CC(C)(C)C1=C(C(=CC(=C1)CCC(=O)OCCOC(=O)CCC2=CC(=C(C(=C2)N3N=C4C=CC=CC4=N3)O)C(C)(C)C)N5N=C6C=CC=CC6=N5)O

> <PUBCHEM_CACTVS_TPSA>
154

> <PUBCHEM_MONOISOTOPIC_WEIGHT>
704.33223314

> <PUBCHEM_TOTAL_CHARGE>
0

> <PUBCHEM_HEAVY_ATOM_COUNT>
52

> <PUBCHEM_ATOM_DEF_STEREO_COUNT>
0

> <PUBCHEM_ATOM_UDEF_STEREO_COUNT>
0

> <PUBCHEM_BOND_DEF_STEREO_COUNT>
0

> <PUBCHEM_BOND_UDEF_STEREO_COUNT>
0

> <PUBCHEM_ISOTOPIC_ATOM_COUNT>
0

> <PUBCHEM_COMPONENT_COUNT>
1

> <PUBCHEM_CACTVS_TAUTO_COUNT>
-1

> <PUBCHEM_COORDINATE_TYPE>
1
5
255

> <PUBCHEM_BONDANNOTATIONS>
10  40  8
11  41  8
12  42  8
15  23  8
15  25  8
16  24  8
16  26  8
23  27  8
24  28  8
25  29  8
26  30  8
27  31  8
28  32  8
29  31  8
30  32  8
39  40  8
39  45  8
40  46  8
41  42  8
41  47  8
42  48  8
45  49  8
46  50  8
47  51  8
48  52  8
49  50  8
51  52  8
7  10  8
7  9  8
8  11  8
8  12  8
9  39  8

$$$$
