224789
  -OEChem-05122609542D

 29 30  0     1  0  0  0  0  0999 V2000
    5.6137   -2.1590    0.0000 O   0  0  0  0  0  0  0  0  0  0  0  0
    7.1045   -0.3270    0.0000 O   0  0  0  0  0  0  0  0  0  0  0  0
    3.2369    1.1644    0.0000 C   0  0  0  0  0  0  0  0  0  0  0  0
    3.7147   -0.7841    0.0000 C   0  0  3  0  0  0  0  0  0  0  0  0
    3.9735    0.1818    0.0000 C   0  0  3  0  0  0  0  0  0  0  0  0
    2.3420   -1.3761    0.0000 C   0  0  0  0  0  0  0  0  0  0  0  0
    2.0000   -0.4364    0.0000 C   0  0  0  0  0  0  0  0  0  0  0  0
    5.1137   -1.2929    0.0000 C   0  0  0  0  0  0  0  0  0  0  0  0
    5.3725   -0.3270    0.0000 C   0  0  0  0  0  0  0  0  0  0  0  0
    3.3415    2.1590    0.0000 C   0  0  0  0  0  0  0  0  0  0  0  0
    2.3234    1.5712    0.0000 C   0  0  0  0  0  0  0  0  0  0  0  0
    3.4559   -1.7500    0.0000 C   0  0  0  0  0  0  0  0  0  0  0  0
    6.2385    0.1730    0.0000 C   0  0  0  0  0  0  0  0  0  0  0  0
    3.9595   -0.4380    0.0000 H   0  0  0  0  0  0  0  0  0  0  0  0
    1.7636   -1.5994    0.0000 H   0  0  0  0  0  0  0  0  0  0  0  0
    2.5765   -1.9501    0.0000 H   0  0  0  0  0  0  0  0  0  0  0  0
    1.8057    0.1523    0.0000 H   0  0  0  0  0  0  0  0  0  0  0  0
    1.4142   -0.6396    0.0000 H   0  0  0  0  0  0  0  0  0  0  0  0
    3.9581    2.0942    0.0000 H   0  0  0  0  0  0  0  0  0  0  0  0
    3.4063    2.7756    0.0000 H   0  0  0  0  0  0  0  0  0  0  0  0
    2.7248    2.2238    0.0000 H   0  0  0  0  0  0  0  0  0  0  0  0
    2.5756    2.1376    0.0000 H   0  0  0  0  0  0  0  0  0  0  0  0
    1.7570    1.8233    0.0000 H   0  0  0  0  0  0  0  0  0  0  0  0
    2.0712    1.0048    0.0000 H   0  0  0  0  0  0  0  0  0  0  0  0
    2.8570   -1.5896    0.0000 H   0  0  0  0  0  0  0  0  0  0  0  0
    3.2954   -2.3489    0.0000 H   0  0  0  0  0  0  0  0  0  0  0  0
    4.0548   -1.9105    0.0000 H   0  0  0  0  0  0  0  0  0  0  0  0
    6.2385    0.7930    0.0000 H   0  0  0  0  0  0  0  0  0  0  0  0
    7.6415   -0.0170    0.0000 H   0  0  0  0  0  0  0  0  0  0  0  0
  1  8  2  0  0  0  0
  2 13  1  0  0  0  0
  2 29  1  0  0  0  0
  3  4  1  0  0  0  0
  3  5  1  0  0  0  0
  3 10  1  0  0  0  0
  3 11  1  0  0  0  0
  4  6  1  0  0  0  0
  4  8  1  0  0  0  0
  4 12  1  0  0  0  0
  5  7  1  0  0  0  0
  5  9  1  0  0  0  0
  5 14  1  0  0  0  0
  6  7  1  0  0  0  0
  6 15  1  0  0  0  0
  6 16  1  0  0  0  0
  7 17  1  0  0  0  0
  7 18  1  0  0  0  0
  8  9  1  0  0  0  0
  9 13  2  3  0  0  0
 10 19  1  0  0  0  0
 10 20  1  0  0  0  0
 10 21  1  0  0  0  0
 11 22  1  0  0  0  0
 11 23  1  0  0  0  0
 11 24  1  0  0  0  0
 12 25  1  0  0  0  0
 12 26  1  0  0  0  0
 12 27  1  0  0  0  0
 13 28  1  0  0  0  0
M  END
> <PUBCHEM_COMPOUND_CID>
224789

> <PUBCHEM_COMPOUND_CANONICALIZED>
1

> <PUBCHEM_CACTVS_COMPLEXITY>
301

> <PUBCHEM_CACTVS_HBOND_ACCEPTOR>
2

> <PUBCHEM_CACTVS_HBOND_DONOR>
1

> <PUBCHEM_CACTVS_ROTATABLE_BOND>
0

> <PUBCHEM_CACTVS_SUBSKEYS>
AAADceBwMAAAAAAAAAAAAAAAAAAAAYMAAAAwAAAAAAAAAAAAAAAAGgAACAAADwSggAICAAAAAgCIAoBSAAAAAAAgIAAAAAEAAEgAEBIAAQAAAAAAgAAAAIEIiMCPgAAAAAAAAACAAAAAAAAAAQAACAAAAA==

> <PUBCHEM_IUPAC_OPENEYE_NAME>
3-(hydroxymethylene)-1,7,7-trimethyl-norbornan-2-one

> <PUBCHEM_IUPAC_CAS_NAME>
3-(hydroxymethylidene)-1,7,7-trimethyl-2-bicyclo[2.2.1]heptanone

> <PUBCHEM_IUPAC_NAME_MARKUP>
3-(hydroxymethylidene)-1,7,7-trimethylbicyclo[2.2.1]heptan-2-one

> <PUBCHEM_IUPAC_NAME>
3-(hydroxymethylidene)-1,7,7-trimethylbicyclo[2.2.1]heptan-2-one

> <PUBCHEM_IUPAC_SYSTEMATIC_NAME>
1,7,7-trimethyl-3-(oxidanylmethylidene)bicyclo[2.2.1]heptan-2-one

> <PUBCHEM_IUPAC_TRADITIONAL_NAME>
3-(hydroxymethylene)-1,7,7-trimethyl-norbornan-2-one

> <PUBCHEM_IUPAC_INCHI>
InChI=1S/C11H16O2/c1-10(2)8-4-5-11(10,3)9(13)7(8)6-12/h6,8,12H,4-5H2,1-3H3

> <PUBCHEM_IUPAC_INCHIKEY>
DFCLRLMPUDXMII-UHFFFAOYSA-N

> <PUBCHEM_XLOGP3_AA>
2.5

> <PUBCHEM_EXACT_MASS>
180.115029749

> <PUBCHEM_MOLECULAR_FORMULA>
C11H16O2

> <PUBCHEM_MOLECULAR_WEIGHT>
180.24

> <PUBCHEM_SMILES>
CC1(C2CCC1(C(=O)C2=CO)C)C

> <PUBCHEM_CONNECTIVITY_SMILES>
CC1(C2CCC1(C(=O)C2=CO)C)C

> <PUBCHEM_CACTVS_TPSA>
37.3

> <PUBCHEM_MONOISOTOPIC_WEIGHT>
180.115029749

> <PUBCHEM_TOTAL_CHARGE>
0

> <PUBCHEM_HEAVY_ATOM_COUNT>
13

> <PUBCHEM_ATOM_DEF_STEREO_COUNT>
0

> <PUBCHEM_ATOM_UDEF_STEREO_COUNT>
2

> <PUBCHEM_BOND_DEF_STEREO_COUNT>
0

> <PUBCHEM_BOND_UDEF_STEREO_COUNT>
1

> <PUBCHEM_ISOTOPIC_ATOM_COUNT>
0

> <PUBCHEM_COMPONENT_COUNT>
1

> <PUBCHEM_CACTVS_TAUTO_COUNT>
-1

> <PUBCHEM_COORDINATE_TYPE>
1
5
255

> <PUBCHEM_BONDANNOTATIONS>
4  12  3
5  7  3
9  13  1

$$$$
