2251785
  -OEChem-05122609512D

 51 52  0     0  0  0  0  0  0999 V2000
    9.4651    3.0950    0.0000 O   0  0  0  0  0  0  0  0  0  0  0  0
    5.1350   -4.4050    0.0000 O   0  0  0  0  0  0  0  0  0  0  0  0
   10.3312    6.5950    0.0000 O   0  0  0  0  0  0  0  0  0  0  0  0
    2.5369   -6.9050    0.0000 O   0  0  0  0  0  0  0  0  0  0  0  0
    7.7331    3.0950    0.0000 N   0  0  0  0  0  0  0  0  0  0  0  0
    4.2690   -2.9050    0.0000 N   0  0  0  0  0  0  0  0  0  0  0  0
    8.5991    4.5950    0.0000 N   0  0  0  0  0  0  0  0  0  0  0  0
    3.4030   -4.4050    0.0000 N   0  0  0  0  0  0  0  0  0  0  0  0
    7.7331   -0.9050    0.0000 C   0  0  0  0  0  0  0  0  0  0  0  0
    7.7331    0.0950    0.0000 C   0  0  0  0  0  0  0  0  0  0  0  0
    6.8671   -1.4050    0.0000 C   0  0  0  0  0  0  0  0  0  0  0  0
    8.5991    0.5950    0.0000 C   0  0  0  0  0  0  0  0  0  0  0  0
    6.8671   -2.4050    0.0000 C   0  0  0  0  0  0  0  0  0  0  0  0
    6.8671    0.5950    0.0000 C   0  0  0  0  0  0  0  0  0  0  0  0
    6.0010   -0.9050    0.0000 C   0  0  0  0  0  0  0  0  0  0  0  0
    7.7331    2.0950    0.0000 C   0  0  0  0  0  0  0  0  0  0  0  0
    5.1350   -2.4050    0.0000 C   0  0  0  0  0  0  0  0  0  0  0  0
    8.5991    1.5950    0.0000 C   0  0  0  0  0  0  0  0  0  0  0  0
    6.0010   -2.9050    0.0000 C   0  0  0  0  0  0  0  0  0  0  0  0
    6.8671    1.5950    0.0000 C   0  0  0  0  0  0  0  0  0  0  0  0
    5.1350   -1.4050    0.0000 C   0  0  0  0  0  0  0  0  0  0  0  0
    8.5991    3.5950    0.0000 C   0  0  0  0  0  0  0  0  0  0  0  0
    4.2690   -3.9050    0.0000 C   0  0  0  0  0  0  0  0  0  0  0  0
    9.4651    5.0950    0.0000 C   0  0  0  0  0  0  0  0  0  0  0  0
    3.4030   -5.4050    0.0000 C   0  0  0  0  0  0  0  0  0  0  0  0
    9.4651    6.0950    0.0000 C   0  0  0  0  0  0  0  0  0  0  0  0
    2.5369   -5.9050    0.0000 C   0  0  0  0  0  0  0  0  0  0  0  0
    7.9451   -1.4876    0.0000 H   0  0  0  0  0  0  0  0  0  0  0  0
    8.3437   -0.7973    0.0000 H   0  0  0  0  0  0  0  0  0  0  0  0
    9.1361    0.2850    0.0000 H   0  0  0  0  0  0  0  0  0  0  0  0
    7.4040   -2.7150    0.0000 H   0  0  0  0  0  0  0  0  0  0  0  0
    6.3301    0.2850    0.0000 H   0  0  0  0  0  0  0  0  0  0  0  0
    6.0010   -0.2850    0.0000 H   0  0  0  0  0  0  0  0  0  0  0  0
    9.1361    1.9050    0.0000 H   0  0  0  0  0  0  0  0  0  0  0  0
    6.0010   -3.5250    0.0000 H   0  0  0  0  0  0  0  0  0  0  0  0
    6.3301    1.9050    0.0000 H   0  0  0  0  0  0  0  0  0  0  0  0
    4.5981   -1.0950    0.0000 H   0  0  0  0  0  0  0  0  0  0  0  0
    7.1962    3.4050    0.0000 H   0  0  0  0  0  0  0  0  0  0  0  0
    3.7321   -2.5950    0.0000 H   0  0  0  0  0  0  0  0  0  0  0  0
    9.6772    4.5124    0.0000 H   0  0  0  0  0  0  0  0  0  0  0  0
   10.0757    5.2027    0.0000 H   0  0  0  0  0  0  0  0  0  0  0  0
    3.6150   -5.9876    0.0000 H   0  0  0  0  0  0  0  0  0  0  0  0
    4.0135   -5.2973    0.0000 H   0  0  0  0  0  0  0  0  0  0  0  0
    8.0622    4.9050    0.0000 H   0  0  0  0  0  0  0  0  0  0  0  0
    2.8660   -4.0950    0.0000 H   0  0  0  0  0  0  0  0  0  0  0  0
    9.2531    6.6776    0.0000 H   0  0  0  0  0  0  0  0  0  0  0  0
    8.8546    5.9873    0.0000 H   0  0  0  0  0  0  0  0  0  0  0  0
    2.3249   -5.3224    0.0000 H   0  0  0  0  0  0  0  0  0  0  0  0
    1.9264   -6.0127    0.0000 H   0  0  0  0  0  0  0  0  0  0  0  0
   10.3312    7.2150    0.0000 H   0  0  0  0  0  0  0  0  0  0  0  0
    2.0000   -7.2150    0.0000 H   0  0  0  0  0  0  0  0  0  0  0  0
  1 22  2  0  0  0  0
  2 23  2  0  0  0  0
  3 26  1  0  0  0  0
  3 50  1  0  0  0  0
  4 27  1  0  0  0  0
  4 51  1  0  0  0  0
  5 16  1  0  0  0  0
  5 22  1  0  0  0  0
  5 38  1  0  0  0  0
  6 17  1  0  0  0  0
  6 23  1  0  0  0  0
  6 39  1  0  0  0  0
  7 22  1  0  0  0  0
  7 24  1  0  0  0  0
  7 44  1  0  0  0  0
  8 23  1  0  0  0  0
  8 25  1  0  0  0  0
  8 45  1  0  0  0  0
  9 10  1  0  0  0  0
  9 11  1  0  0  0  0
  9 28  1  0  0  0  0
  9 29  1  0  0  0  0
 10 12  2  0  0  0  0
 10 14  1  0  0  0  0
 11 13  2  0  0  0  0
 11 15  1  0  0  0  0
 12 18  1  0  0  0  0
 12 30  1  0  0  0  0
 13 19  1  0  0  0  0
 13 31  1  0  0  0  0
 14 20  2  0  0  0  0
 14 32  1  0  0  0  0
 15 21  2  0  0  0  0
 15 33  1  0  0  0  0
 16 18  2  0  0  0  0
 16 20  1  0  0  0  0
 17 19  2  0  0  0  0
 17 21  1  0  0  0  0
 18 34  1  0  0  0  0
 19 35  1  0  0  0  0
 20 36  1  0  0  0  0
 21 37  1  0  0  0  0
 24 26  1  0  0  0  0
 24 40  1  0  0  0  0
 24 41  1  0  0  0  0
 25 27  1  0  0  0  0
 25 42  1  0  0  0  0
 25 43  1  0  0  0  0
 26 46  1  0  0  0  0
 26 47  1  0  0  0  0
 27 48  1  0  0  0  0
 27 49  1  0  0  0  0
M  END
> <PUBCHEM_COMPOUND_CID>
2251785

> <PUBCHEM_COMPOUND_CANONICALIZED>
1

> <PUBCHEM_CACTVS_COMPLEXITY>
407

> <PUBCHEM_CACTVS_HBOND_ACCEPTOR>
4

> <PUBCHEM_CACTVS_HBOND_DONOR>
6

> <PUBCHEM_CACTVS_ROTATABLE_BOND>
8

> <PUBCHEM_CACTVS_SUBSKEYS>
AAADceB7uAAAAAAAAAAAAAAAAAAAAAAAAAAwYAAAAAAAAAABQAAAHgAQCAAADAjhmAYxwILAAgCIAiRCUACCAAAhAgAIiIAIZIiKMCLAkZGEIAholgJYyCcQgMAOCAAAAAAAAAAQAAAAAAAAAAAAAAAAAA==

> <PUBCHEM_IUPAC_OPENEYE_NAME>
1-(2-hydroxyethyl)-3-[4-[[4-(2-hydroxyethylcarbamoylamino)phenyl]methyl]phenyl]urea

> <PUBCHEM_IUPAC_CAS_NAME>
1-(2-hydroxyethyl)-3-[4-[[4-[[(2-hydroxyethylamino)-oxomethyl]amino]phenyl]methyl]phenyl]urea

> <PUBCHEM_IUPAC_NAME_MARKUP>
1-(2-hydroxyethyl)-3-[4-[[4-(2-hydroxyethylcarbamoylamino)phenyl]methyl]phenyl]urea

> <PUBCHEM_IUPAC_NAME>
1-(2-hydroxyethyl)-3-[4-[[4-(2-hydroxyethylcarbamoylamino)phenyl]methyl]phenyl]urea

> <PUBCHEM_IUPAC_SYSTEMATIC_NAME>
1-(2-hydroxyethyl)-3-[4-[[4-(2-hydroxyethylcarbamoylamino)phenyl]methyl]phenyl]urea

> <PUBCHEM_IUPAC_TRADITIONAL_NAME>
1-(2-hydroxyethyl)-3-[4-[4-(2-hydroxyethylcarbamoylamino)benzyl]phenyl]urea

> <PUBCHEM_IUPAC_INCHI>
InChI=1S/C19H24N4O4/c24-11-9-20-18(26)22-16-5-1-14(2-6-16)13-15-3-7-17(8-4-15)23-19(27)21-10-12-25/h1-8,24-25H,9-13H2,(H2,20,22,26)(H2,21,23,27)

> <PUBCHEM_IUPAC_INCHIKEY>
LZUBGQYVUZIPHB-UHFFFAOYSA-N

> <PUBCHEM_XLOGP3_AA>
0.5

> <PUBCHEM_EXACT_MASS>
372.17975526

> <PUBCHEM_MOLECULAR_FORMULA>
C19H24N4O4

> <PUBCHEM_MOLECULAR_WEIGHT>
372.4

> <PUBCHEM_SMILES>
C1=CC(=CC=C1CC2=CC=C(C=C2)NC(=O)NCCO)NC(=O)NCCO

> <PUBCHEM_CONNECTIVITY_SMILES>
C1=CC(=CC=C1CC2=CC=C(C=C2)NC(=O)NCCO)NC(=O)NCCO

> <PUBCHEM_CACTVS_TPSA>
123

> <PUBCHEM_MONOISOTOPIC_WEIGHT>
372.17975526

> <PUBCHEM_TOTAL_CHARGE>
0

> <PUBCHEM_HEAVY_ATOM_COUNT>
27

> <PUBCHEM_ATOM_DEF_STEREO_COUNT>
0

> <PUBCHEM_ATOM_UDEF_STEREO_COUNT>
0

> <PUBCHEM_BOND_DEF_STEREO_COUNT>
0

> <PUBCHEM_BOND_UDEF_STEREO_COUNT>
0

> <PUBCHEM_ISOTOPIC_ATOM_COUNT>
0

> <PUBCHEM_COMPONENT_COUNT>
1

> <PUBCHEM_CACTVS_TAUTO_COUNT>
-1

> <PUBCHEM_COORDINATE_TYPE>
1
5
255

> <PUBCHEM_BONDANNOTATIONS>
10  12  8
10  14  8
11  13  8
11  15  8
12  18  8
13  19  8
14  20  8
15  21  8
16  18  8
16  20  8
17  19  8
17  21  8

$$$$
