225882
  -OEChem-05122609032D

 54 53  0     1  0  0  0  0  0999 V2000
    8.0622    1.3450    0.0000 O   0  0  0  0  0  0  0  0  0  0  0  0
    5.4641   -0.1550    0.0000 C   0  0  3  0  0  0  0  0  0  0  0  0
    6.3301    0.3450    0.0000 C   0  0  0  0  0  0  0  0  0  0  0  0
    7.1962   -0.1550    0.0000 C   0  0  0  0  0  0  0  0  0  0  0  0
    8.0622    0.3450    0.0000 C   0  0  3  0  0  0  0  0  0  0  0  0
    8.9282   -0.1550    0.0000 C   0  0  0  0  0  0  0  0  0  0  0  0
   10.6603   -0.1550    0.0000 C   0  0  0  0  0  0  0  0  0  0  0  0
    9.7942    0.3450    0.0000 C   0  0  0  0  0  0  0  0  0  0  0  0
    4.5981    0.3450    0.0000 C   0  0  0  0  0  0  0  0  0  0  0  0
    5.4641   -1.1550    0.0000 C   0  0  0  0  0  0  0  0  0  0  0  0
    3.7321   -0.1550    0.0000 C   0  0  0  0  0  0  0  0  0  0  0  0
   11.5263    0.3450    0.0000 C   0  0  0  0  0  0  0  0  0  0  0  0
   10.6603   -1.1550    0.0000 C   0  0  0  0  0  0  0  0  0  0  0  0
    4.5981   -1.6550    0.0000 C   0  0  0  0  0  0  0  0  0  0  0  0
    2.8660    0.3450    0.0000 C   0  0  0  0  0  0  0  0  0  0  0  0
   12.3923   -0.1550    0.0000 C   0  0  0  0  0  0  0  0  0  0  0  0
   11.5263   -1.6550    0.0000 C   0  0  0  0  0  0  0  0  0  0  0  0
    2.0000   -0.1550    0.0000 C   0  0  0  0  0  0  0  0  0  0  0  0
    5.4641    0.4650    0.0000 H   0  0  0  0  0  0  0  0  0  0  0  0
    6.7287    0.8199    0.0000 H   0  0  0  0  0  0  0  0  0  0  0  0
    5.9316    0.8199    0.0000 H   0  0  0  0  0  0  0  0  0  0  0  0
    6.7976   -0.6299    0.0000 H   0  0  0  0  0  0  0  0  0  0  0  0
    7.5947   -0.6299    0.0000 H   0  0  0  0  0  0  0  0  0  0  0  0
    7.5252    0.6550    0.0000 H   0  0  0  0  0  0  0  0  0  0  0  0
    8.5297   -0.6299    0.0000 H   0  0  0  0  0  0  0  0  0  0  0  0
    9.3267   -0.6299    0.0000 H   0  0  0  0  0  0  0  0  0  0  0  0
   11.1972   -0.4650    0.0000 H   0  0  0  0  0  0  0  0  0  0  0  0
   10.1928    0.8199    0.0000 H   0  0  0  0  0  0  0  0  0  0  0  0
    9.3957    0.8199    0.0000 H   0  0  0  0  0  0  0  0  0  0  0  0
    4.9966    0.8199    0.0000 H   0  0  0  0  0  0  0  0  0  0  0  0
    4.1996    0.8199    0.0000 H   0  0  0  0  0  0  0  0  0  0  0  0
    5.6762   -1.7376    0.0000 H   0  0  0  0  0  0  0  0  0  0  0  0
    6.0747   -1.0473    0.0000 H   0  0  0  0  0  0  0  0  0  0  0  0
    3.3335   -0.6299    0.0000 H   0  0  0  0  0  0  0  0  0  0  0  0
    4.1306   -0.6299    0.0000 H   0  0  0  0  0  0  0  0  0  0  0  0
   11.9248    0.8199    0.0000 H   0  0  0  0  0  0  0  0  0  0  0  0
   11.1278    0.8199    0.0000 H   0  0  0  0  0  0  0  0  0  0  0  0
   10.0497   -1.0473    0.0000 H   0  0  0  0  0  0  0  0  0  0  0  0
   10.4482   -1.7376    0.0000 H   0  0  0  0  0  0  0  0  0  0  0  0
    4.2881   -1.1181    0.0000 H   0  0  0  0  0  0  0  0  0  0  0  0
    4.0611   -1.9650    0.0000 H   0  0  0  0  0  0  0  0  0  0  0  0
    4.9081   -2.1919    0.0000 H   0  0  0  0  0  0  0  0  0  0  0  0
    3.2646    0.8199    0.0000 H   0  0  0  0  0  0  0  0  0  0  0  0
    2.4675    0.8199    0.0000 H   0  0  0  0  0  0  0  0  0  0  0  0
    8.5991    1.6550    0.0000 H   0  0  0  0  0  0  0  0  0  0  0  0
   12.0823   -0.6919    0.0000 H   0  0  0  0  0  0  0  0  0  0  0  0
   12.9292   -0.4650    0.0000 H   0  0  0  0  0  0  0  0  0  0  0  0
   12.7023    0.3819    0.0000 H   0  0  0  0  0  0  0  0  0  0  0  0
   11.2163   -2.1919    0.0000 H   0  0  0  0  0  0  0  0  0  0  0  0
   12.0632   -1.9650    0.0000 H   0  0  0  0  0  0  0  0  0  0  0  0
   11.8363   -1.1181    0.0000 H   0  0  0  0  0  0  0  0  0  0  0  0
    1.6900    0.3819    0.0000 H   0  0  0  0  0  0  0  0  0  0  0  0
    1.4631   -0.4650    0.0000 H   0  0  0  0  0  0  0  0  0  0  0  0
    2.3100   -0.6919    0.0000 H   0  0  0  0  0  0  0  0  0  0  0  0
  1  5  1  0  0  0  0
  1 45  1  0  0  0  0
  2  3  1  0  0  0  0
  2  9  1  0  0  0  0
  2 10  1  0  0  0  0
  2 19  1  0  0  0  0
  3  4  1  0  0  0  0
  3 20  1  0  0  0  0
  3 21  1  0  0  0  0
  4  5  1  0  0  0  0
  4 22  1  0  0  0  0
  4 23  1  0  0  0  0
  5  6  1  0  0  0  0
  5 24  1  0  0  0  0
  6  8  1  0  0  0  0
  6 25  1  0  0  0  0
  6 26  1  0  0  0  0
  7  8  1  0  0  0  0
  7 12  1  0  0  0  0
  7 13  1  0  0  0  0
  7 27  1  0  0  0  0
  8 28  1  0  0  0  0
  8 29  1  0  0  0  0
  9 11  1  0  0  0  0
  9 30  1  0  0  0  0
  9 31  1  0  0  0  0
 10 14  1  0  0  0  0
 10 32  1  0  0  0  0
 10 33  1  0  0  0  0
 11 15  1  0  0  0  0
 11 34  1  0  0  0  0
 11 35  1  0  0  0  0
 12 16  1  0  0  0  0
 12 36  1  0  0  0  0
 12 37  1  0  0  0  0
 13 17  1  0  0  0  0
 13 38  1  0  0  0  0
 13 39  1  0  0  0  0
 14 40  1  0  0  0  0
 14 41  1  0  0  0  0
 14 42  1  0  0  0  0
 15 18  1  0  0  0  0
 15 43  1  0  0  0  0
 15 44  1  0  0  0  0
 16 46  1  0  0  0  0
 16 47  1  0  0  0  0
 16 48  1  0  0  0  0
 17 49  1  0  0  0  0
 17 50  1  0  0  0  0
 17 51  1  0  0  0  0
 18 52  1  0  0  0  0
 18 53  1  0  0  0  0
 18 54  1  0  0  0  0
M  END
> <PUBCHEM_COMPOUND_CID>
225882

> <PUBCHEM_COMPOUND_CANONICALIZED>
1

> <PUBCHEM_CACTVS_COMPLEXITY>
163

> <PUBCHEM_CACTVS_HBOND_ACCEPTOR>
1

> <PUBCHEM_CACTVS_HBOND_DONOR>
1

> <PUBCHEM_CACTVS_ROTATABLE_BOND>
12

> <PUBCHEM_CACTVS_SUBSKEYS>
AAADcfB4IAAAAAAAAAAAAAAAAAAAAAAAAAAAAAAAAAAAAAAAAAAAGgAACAAADRSggAICAAAAAgAAAAAAAAAAAAAAAAAAAAAAAAAAEAIAAAAAQAAEAAAAAAGAwOAOAAAAAAAAAAAAAAAAAAAAAAAAAAAAAA==

> <PUBCHEM_IUPAC_OPENEYE_NAME>
3,9-diethyltridecan-6-ol

> <PUBCHEM_IUPAC_CAS_NAME>
3,9-diethyl-6-tridecanol

> <PUBCHEM_IUPAC_NAME_MARKUP>
3,9-diethyltridecan-6-ol

> <PUBCHEM_IUPAC_NAME>
3,9-diethyltridecan-6-ol

> <PUBCHEM_IUPAC_SYSTEMATIC_NAME>
3,9-diethyltridecan-6-ol

> <PUBCHEM_IUPAC_TRADITIONAL_NAME>
3,9-diethyltridecan-6-ol

> <PUBCHEM_IUPAC_INCHI>
InChI=1S/C17H36O/c1-5-9-10-16(8-4)12-14-17(18)13-11-15(6-2)7-3/h15-18H,5-14H2,1-4H3

> <PUBCHEM_IUPAC_INCHIKEY>
NWDHHLKROQOLMQ-UHFFFAOYSA-N

> <PUBCHEM_XLOGP3_AA>
6.9

> <PUBCHEM_EXACT_MASS>
256.276615768

> <PUBCHEM_MOLECULAR_FORMULA>
C17H36O

> <PUBCHEM_MOLECULAR_WEIGHT>
256.5

> <PUBCHEM_SMILES>
CCCCC(CC)CCC(CCC(CC)CC)O

> <PUBCHEM_CONNECTIVITY_SMILES>
CCCCC(CC)CCC(CCC(CC)CC)O

> <PUBCHEM_CACTVS_TPSA>
20.2

> <PUBCHEM_MONOISOTOPIC_WEIGHT>
256.276615768

> <PUBCHEM_TOTAL_CHARGE>
0

> <PUBCHEM_HEAVY_ATOM_COUNT>
18

> <PUBCHEM_ATOM_DEF_STEREO_COUNT>
0

> <PUBCHEM_ATOM_UDEF_STEREO_COUNT>
2

> <PUBCHEM_BOND_DEF_STEREO_COUNT>
0

> <PUBCHEM_BOND_UDEF_STEREO_COUNT>
0

> <PUBCHEM_ISOTOPIC_ATOM_COUNT>
0

> <PUBCHEM_COMPONENT_COUNT>
1

> <PUBCHEM_CACTVS_TAUTO_COUNT>
-1

> <PUBCHEM_COORDINATE_TYPE>
1
5
255

> <PUBCHEM_BONDANNOTATIONS>
5  1  3
2  10  3

$$$$
