22772
  -OEChem-05122608302D

  9  8  0     0  0  0  0  0  0999 V2000
    5.4641    0.5000    0.0000 S   0  0  0  0  0  0  0  0  0  0  0  0
    3.7321    0.5000    0.0000 S   0  0  0  0  0  0  0  0  0  0  0  0
    7.1962   -0.5000    0.0000 N   0  0  0  0  0  0  0  0  0  0  0  0
    2.0000   -0.5000    0.0000 N   0  0  0  0  0  0  0  0  0  0  0  0
    4.5981    0.0000    0.0000 C   0  0  0  0  0  0  0  0  0  0  0  0
    6.3301    0.0000    0.0000 C   0  0  0  0  0  0  0  0  0  0  0  0
    2.8660   -0.0000    0.0000 C   0  0  0  0  0  0  0  0  0  0  0  0
    4.1996   -0.4749    0.0000 H   0  0  0  0  0  0  0  0  0  0  0  0
    4.9966   -0.4749    0.0000 H   0  0  0  0  0  0  0  0  0  0  0  0
  1  5  1  0  0  0  0
  1  6  1  0  0  0  0
  2  5  1  0  0  0  0
  2  7  1  0  0  0  0
  3  6  3  0  0  0  0
  4  7  3  0  0  0  0
  5  8  1  0  0  0  0
  5  9  1  0  0  0  0
M  END
> <PUBCHEM_COMPOUND_CID>
22772

> <PUBCHEM_COMPOUND_CANONICALIZED>
1

> <PUBCHEM_CACTVS_COMPLEXITY>
108

> <PUBCHEM_CACTVS_HBOND_ACCEPTOR>
4

> <PUBCHEM_CACTVS_HBOND_DONOR>
0

> <PUBCHEM_CACTVS_ROTATABLE_BOND>
2

> <PUBCHEM_CACTVS_SUBSKEYS>
AAADcQBDAABgAAAAAAAAAAAAAAAAAAAAAAAAAAAAAAAAAAAAAAAAFAQAAAAAAAAAAACAAAAAAAgQAAAAAAAAAQAAAAAAAAAAAAAAAAAAAAAAAAAAAAAAAAAAAAAAAAAAAAAAAAAAAAAAAAAAAAAAAAAAAA==

> <PUBCHEM_IUPAC_OPENEYE_NAME>
thiocyanatomethyl thiocyanate

> <PUBCHEM_IUPAC_CAS_NAME>
thiocyanic acid thiocyanatomethyl ester

> <PUBCHEM_IUPAC_NAME_MARKUP>
thiocyanatomethyl thiocyanate

> <PUBCHEM_IUPAC_NAME>
thiocyanatomethyl thiocyanate

> <PUBCHEM_IUPAC_SYSTEMATIC_NAME>
thiocyanatomethyl thiocyanate

> <PUBCHEM_IUPAC_TRADITIONAL_NAME>
thiocyanic acid thiocyanatomethyl ester

> <PUBCHEM_IUPAC_INCHI>
InChI=1S/C3H2N2S2/c4-1-6-3-7-2-5/h3H2

> <PUBCHEM_IUPAC_INCHIKEY>
JWZXKXIUSSIAMR-UHFFFAOYSA-N

> <PUBCHEM_XLOGP3_AA>
1.7

> <PUBCHEM_EXACT_MASS>
129.96594042

> <PUBCHEM_MOLECULAR_FORMULA>
C3H2N2S2

> <PUBCHEM_MOLECULAR_WEIGHT>
130.20

> <PUBCHEM_SMILES>
C(SC#N)SC#N

> <PUBCHEM_CONNECTIVITY_SMILES>
C(SC#N)SC#N

> <PUBCHEM_CACTVS_TPSA>
98.2

> <PUBCHEM_MONOISOTOPIC_WEIGHT>
129.96594042

> <PUBCHEM_TOTAL_CHARGE>
0

> <PUBCHEM_HEAVY_ATOM_COUNT>
7

> <PUBCHEM_ATOM_DEF_STEREO_COUNT>
0

> <PUBCHEM_ATOM_UDEF_STEREO_COUNT>
0

> <PUBCHEM_BOND_DEF_STEREO_COUNT>
0

> <PUBCHEM_BOND_UDEF_STEREO_COUNT>
0

> <PUBCHEM_ISOTOPIC_ATOM_COUNT>
0

> <PUBCHEM_COMPONENT_COUNT>
1

> <PUBCHEM_CACTVS_TAUTO_COUNT>
-1

> <PUBCHEM_COORDINATE_TYPE>
1
5
255

$$$$
