23136180
  -OEChem-05122609482D

 42 41  0     0  0  0  0  0  0999 V2000
    3.4030   -2.5000    0.0000 S   0  0  0  0  0  0  0  0  0  0  0  0
    8.0991    0.3660    0.0000 F   0  0  0  0  0  0  0  0  0  0  0  0
    9.0991   -1.3660    0.0000 F   0  0  0  0  0  0  0  0  0  0  0  0
    8.9651    0.8660    0.0000 F   0  0  0  0  0  0  0  0  0  0  0  0
    9.9651   -0.8660    0.0000 F   0  0  0  0  0  0  0  0  0  0  0  0
    7.2331   -0.1340    0.0000 F   0  0  0  0  0  0  0  0  0  0  0  0
    8.2331   -1.8660    0.0000 F   0  0  0  0  0  0  0  0  0  0  0  0
    9.8312    1.3660    0.0000 F   0  0  0  0  0  0  0  0  0  0  0  0
   10.8312   -0.3660    0.0000 F   0  0  0  0  0  0  0  0  0  0  0  0
    6.3671   -0.6340    0.0000 F   0  0  0  0  0  0  0  0  0  0  0  0
    7.3671   -2.3660    0.0000 F   0  0  0  0  0  0  0  0  0  0  0  0
   11.6972    0.1340    0.0000 F   0  0  0  0  0  0  0  0  0  0  0  0
   10.6972    1.8660    0.0000 F   0  0  0  0  0  0  0  0  0  0  0  0
    5.5010   -1.1340    0.0000 F   0  0  0  0  0  0  0  0  0  0  0  0
    6.5010   -2.8660    0.0000 F   0  0  0  0  0  0  0  0  0  0  0  0
   12.5632    0.6340    0.0000 F   0  0  0  0  0  0  0  0  0  0  0  0
   11.5632    2.3660    0.0000 F   0  0  0  0  0  0  0  0  0  0  0  0
   13.4292    1.1340    0.0000 F   0  0  0  0  0  0  0  0  0  0  0  0
   12.4292    2.8660    0.0000 F   0  0  0  0  0  0  0  0  0  0  0  0
   14.6613    3.0000    0.0000 F   0  0  0  0  0  0  0  0  0  0  0  0
   14.2953    1.6340    0.0000 F   0  0  0  0  0  0  0  0  0  0  0  0
   13.2953    3.3660    0.0000 F   0  0  0  0  0  0  0  0  0  0  0  0
    2.5369   -3.0000    0.0000 O   0  0  0  0  0  0  0  0  0  0  0  0
    2.9030   -1.6340    0.0000 O   0  0  0  0  0  0  0  0  0  0  0  0
    3.9030   -3.3660    0.0000 O   0  0  0  0  0  0  0  0  0  0  0  0
    8.5991   -0.5000    0.0000 C   0  0  0  0  0  0  0  0  0  0  0  0
    9.4651    0.0000    0.0000 C   0  0  0  0  0  0  0  0  0  0  0  0
    7.7331   -1.0000    0.0000 C   0  0  0  0  0  0  0  0  0  0  0  0
   10.3312    0.5000    0.0000 C   0  0  0  0  0  0  0  0  0  0  0  0
    6.8671   -1.5000    0.0000 C   0  0  0  0  0  0  0  0  0  0  0  0
   11.1972    1.0000    0.0000 C   0  0  0  0  0  0  0  0  0  0  0  0
    6.0010   -2.0000    0.0000 C   0  0  0  0  0  0  0  0  0  0  0  0
   12.0632    1.5000    0.0000 C   0  0  0  0  0  0  0  0  0  0  0  0
    5.1350   -2.5000    0.0000 C   0  0  0  0  0  0  0  0  0  0  0  0
   12.9292    2.0000    0.0000 C   0  0  0  0  0  0  0  0  0  0  0  0
    4.2690   -2.0000    0.0000 C   0  0  0  0  0  0  0  0  0  0  0  0
   13.7953    2.5000    0.0000 C   0  0  0  0  0  0  0  0  0  0  0  0
    4.7365   -2.9750    0.0000 H   0  0  0  0  0  0  0  0  0  0  0  0
    5.5335   -2.9750    0.0000 H   0  0  0  0  0  0  0  0  0  0  0  0
    4.6675   -1.5251    0.0000 H   0  0  0  0  0  0  0  0  0  0  0  0
    3.8705   -1.5251    0.0000 H   0  0  0  0  0  0  0  0  0  0  0  0
    2.0000   -2.6900    0.0000 H   0  0  0  0  0  0  0  0  0  0  0  0
  1 23  1  0  0  0  0
  1 24  2  0  0  0  0
  1 25  2  0  0  0  0
  1 36  1  0  0  0  0
  2 26  1  0  0  0  0
  3 26  1  0  0  0  0
  4 27  1  0  0  0  0
  5 27  1  0  0  0  0
  6 28  1  0  0  0  0
  7 28  1  0  0  0  0
  8 29  1  0  0  0  0
  9 29  1  0  0  0  0
 10 30  1  0  0  0  0
 11 30  1  0  0  0  0
 12 31  1  0  0  0  0
 13 31  1  0  0  0  0
 14 32  1  0  0  0  0
 15 32  1  0  0  0  0
 16 33  1  0  0  0  0
 17 33  1  0  0  0  0
 18 35  1  0  0  0  0
 19 35  1  0  0  0  0
 20 37  1  0  0  0  0
 21 37  1  0  0  0  0
 22 37  1  0  0  0  0
 23 42  1  0  0  0  0
 26 27  1  0  0  0  0
 26 28  1  0  0  0  0
 27 29  1  0  0  0  0
 28 30  1  0  0  0  0
 29 31  1  0  0  0  0
 30 32  1  0  0  0  0
 31 33  1  0  0  0  0
 32 34  1  0  0  0  0
 33 35  1  0  0  0  0
 34 36  1  0  0  0  0
 34 38  1  0  0  0  0
 34 39  1  0  0  0  0
 35 37  1  0  0  0  0
 36 40  1  0  0  0  0
 36 41  1  0  0  0  0
M  END
> <PUBCHEM_COMPOUND_CID>
23136180

> <PUBCHEM_COMPOUND_CANONICALIZED>
1

> <PUBCHEM_CACTVS_COMPLEXITY>
941

> <PUBCHEM_CACTVS_HBOND_ACCEPTOR>
24

> <PUBCHEM_CACTVS_HBOND_DONOR>
1

> <PUBCHEM_CACTVS_ROTATABLE_BOND>
11

> <PUBCHEM_CACTVS_SUBSKEYS>
AAADcYBwMcBAAAAAAAAAAAAAAAAAAAAAAAAAAAAAAAAAAAAAAAAAGQQACAAACACEQBCAAAAAAIIAAAAAAHBAAAAAAAAAAAAAAAAAAAIAAAAAAAAAAAAAAAEAgIAAAAAAAAAAAAAAAAAAAAAAAAAAAAAAAA==

> <PUBCHEM_IUPAC_OPENEYE_NAME>
3,3,4,4,5,5,6,6,7,7,8,8,9,9,10,10,11,11,12,12,12-henicosafluorododecane-1-sulfonic acid

> <PUBCHEM_IUPAC_CAS_NAME>
3,3,4,4,5,5,6,6,7,7,8,8,9,9,10,10,11,11,12,12,12-heneicosafluoro-1-dodecanesulfonic acid

> <PUBCHEM_IUPAC_NAME_MARKUP>
3,3,4,4,5,5,6,6,7,7,8,8,9,9,10,10,11,11,12,12,12-henicosafluorododecane-1-sulfonic acid

> <PUBCHEM_IUPAC_NAME>
3,3,4,4,5,5,6,6,7,7,8,8,9,9,10,10,11,11,12,12,12-henicosafluorododecane-1-sulfonic acid

> <PUBCHEM_IUPAC_SYSTEMATIC_NAME>
3,3,4,4,5,5,6,6,7,7,8,8,9,9,10,10,11,11,12,12,12-henicosakis(fluoranyl)dodecane-1-sulfonic acid

> <PUBCHEM_IUPAC_TRADITIONAL_NAME>
3,3,4,4,5,5,6,6,7,7,8,8,9,9,10,10,11,11,12,12,12-heneicosafluorododecane-1-sulfonic acid

> <PUBCHEM_IUPAC_INCHI>
InChI=1S/C12H5F21O3S/c13-3(14,1-2-37(34,35)36)4(15,16)5(17,18)6(19,20)7(21,22)8(23,24)9(25,26)10(27,28)11(29,30)12(31,32)33/h1-2H2,(H,34,35,36)

> <PUBCHEM_IUPAC_INCHIKEY>
AJMAYLFJZQYRHN-UHFFFAOYSA-N

> <PUBCHEM_XLOGP3_AA>
6.6

> <PUBCHEM_EXACT_MASS>
627.9624066

> <PUBCHEM_MOLECULAR_FORMULA>
C12H5F21O3S

> <PUBCHEM_MOLECULAR_WEIGHT>
628.20

> <PUBCHEM_SMILES>
C(CS(=O)(=O)O)C(C(C(C(C(C(C(C(C(C(F)(F)F)(F)F)(F)F)(F)F)(F)F)(F)F)(F)F)(F)F)(F)F)(F)F

> <PUBCHEM_CONNECTIVITY_SMILES>
C(CS(=O)(=O)O)C(C(C(C(C(C(C(C(C(C(F)(F)F)(F)F)(F)F)(F)F)(F)F)(F)F)(F)F)(F)F)(F)F)(F)F

> <PUBCHEM_CACTVS_TPSA>
62.8

> <PUBCHEM_MONOISOTOPIC_WEIGHT>
627.9624066

> <PUBCHEM_TOTAL_CHARGE>
0

> <PUBCHEM_HEAVY_ATOM_COUNT>
37

> <PUBCHEM_ATOM_DEF_STEREO_COUNT>
0

> <PUBCHEM_ATOM_UDEF_STEREO_COUNT>
0

> <PUBCHEM_BOND_DEF_STEREO_COUNT>
0

> <PUBCHEM_BOND_UDEF_STEREO_COUNT>
0

> <PUBCHEM_ISOTOPIC_ATOM_COUNT>
0

> <PUBCHEM_COMPONENT_COUNT>
1

> <PUBCHEM_CACTVS_TAUTO_COUNT>
-1

> <PUBCHEM_COORDINATE_TYPE>
1
5
255

$$$$
