233220
  -OEChem-05122609182D

 24 24  0     1  0  0  0  0  0999 V2000
    4.0000    0.7500    0.0000 O   0  0  0  0  0  0  0  0  0  0  0  0
    2.1340    2.2500    0.0000 O   0  0  0  0  0  0  0  0  0  0  0  0
    3.0000    0.7500    0.0000 C   0  0  3  0  0  0  0  0  0  0  0  0
    3.0000   -0.2500    0.0000 C   0  0  0  0  0  0  0  0  0  0  0  0
    2.0000    0.7500    0.0000 C   0  0  0  0  0  0  0  0  0  0  0  0
    3.0000    1.7500    0.0000 C   0  0  0  0  0  0  0  0  0  0  0  0
    2.1340   -0.7500    0.0000 C   0  0  0  0  0  0  0  0  0  0  0  0
    3.8660   -0.7500    0.0000 C   0  0  0  0  0  0  0  0  0  0  0  0
    3.8660    2.2500    0.0000 C   0  0  0  0  0  0  0  0  0  0  0  0
    2.1340   -1.7500    0.0000 C   0  0  0  0  0  0  0  0  0  0  0  0
    3.8660   -1.7500    0.0000 C   0  0  0  0  0  0  0  0  0  0  0  0
    3.0000   -2.2500    0.0000 C   0  0  0  0  0  0  0  0  0  0  0  0
    2.0000    1.3700    0.0000 H   0  0  0  0  0  0  0  0  0  0  0  0
    1.3800    0.7500    0.0000 H   0  0  0  0  0  0  0  0  0  0  0  0
    2.0000    0.1300    0.0000 H   0  0  0  0  0  0  0  0  0  0  0  0
    1.5970   -0.4400    0.0000 H   0  0  0  0  0  0  0  0  0  0  0  0
    4.4030   -0.4400    0.0000 H   0  0  0  0  0  0  0  0  0  0  0  0
    4.1760    1.7131    0.0000 H   0  0  0  0  0  0  0  0  0  0  0  0
    4.4030    2.5600    0.0000 H   0  0  0  0  0  0  0  0  0  0  0  0
    3.5560    2.7869    0.0000 H   0  0  0  0  0  0  0  0  0  0  0  0
    4.3100    1.2869    0.0000 H   0  0  0  0  0  0  0  0  0  0  0  0
    1.5970   -2.0600    0.0000 H   0  0  0  0  0  0  0  0  0  0  0  0
    4.4030   -2.0600    0.0000 H   0  0  0  0  0  0  0  0  0  0  0  0
    3.0000   -2.8700    0.0000 H   0  0  0  0  0  0  0  0  0  0  0  0
  1  3  1  0  0  0  0
  1 21  1  0  0  0  0
  2  6  2  0  0  0  0
  3  4  1  0  0  0  0
  3  5  1  0  0  0  0
  3  6  1  0  0  0  0
  4  7  2  0  0  0  0
  4  8  1  0  0  0  0
  5 13  1  0  0  0  0
  5 14  1  0  0  0  0
  5 15  1  0  0  0  0
  6  9  1  0  0  0  0
  7 10  1  0  0  0  0
  7 16  1  0  0  0  0
  8 11  2  0  0  0  0
  8 17  1  0  0  0  0
  9 18  1  0  0  0  0
  9 19  1  0  0  0  0
  9 20  1  0  0  0  0
 10 12  2  0  0  0  0
 10 22  1  0  0  0  0
 11 12  1  0  0  0  0
 11 23  1  0  0  0  0
 12 24  1  0  0  0  0
M  END
> <PUBCHEM_COMPOUND_CID>
233220

> <PUBCHEM_COMPOUND_CANONICALIZED>
1

> <PUBCHEM_CACTVS_COMPLEXITY>
171

> <PUBCHEM_CACTVS_HBOND_ACCEPTOR>
2

> <PUBCHEM_CACTVS_HBOND_DONOR>
1

> <PUBCHEM_CACTVS_ROTATABLE_BOND>
2

> <PUBCHEM_CACTVS_SUBSKEYS>
AAADccBwMAAAAAAAAAAAAAAAAAAAAAAAAAAwAAAAAAAAAAABAAAAGgAACAAADESAmAAyAIAAAgCIAqBSAAICAAAgAAAIiAFACIgIJjKAFRCAcAAkwAEImAeIyOCOgAAAAAAAAAAAAAAAAAAAAAAAAAAAAA==

> <PUBCHEM_IUPAC_OPENEYE_NAME>
3-hydroxy-3-phenyl-butan-2-one

> <PUBCHEM_IUPAC_CAS_NAME>
3-hydroxy-3-phenyl-2-butanone

> <PUBCHEM_IUPAC_NAME_MARKUP>
3-hydroxy-3-phenylbutan-2-one

> <PUBCHEM_IUPAC_NAME>
3-hydroxy-3-phenylbutan-2-one

> <PUBCHEM_IUPAC_SYSTEMATIC_NAME>
3-oxidanyl-3-phenyl-butan-2-one

> <PUBCHEM_IUPAC_TRADITIONAL_NAME>
3-hydroxy-3-phenyl-butan-2-one

> <PUBCHEM_IUPAC_INCHI>
InChI=1S/C10H12O2/c1-8(11)10(2,12)9-6-4-3-5-7-9/h3-7,12H,1-2H3

> <PUBCHEM_IUPAC_INCHIKEY>
IBWFPYRVHYLXEU-UHFFFAOYSA-N

> <PUBCHEM_XLOGP3_AA>
1.2

> <PUBCHEM_EXACT_MASS>
164.083729621

> <PUBCHEM_MOLECULAR_FORMULA>
C10H12O2

> <PUBCHEM_MOLECULAR_WEIGHT>
164.20

> <PUBCHEM_SMILES>
CC(=O)C(C)(C1=CC=CC=C1)O

> <PUBCHEM_CONNECTIVITY_SMILES>
CC(=O)C(C)(C1=CC=CC=C1)O

> <PUBCHEM_CACTVS_TPSA>
37.3

> <PUBCHEM_MONOISOTOPIC_WEIGHT>
164.083729621

> <PUBCHEM_TOTAL_CHARGE>
0

> <PUBCHEM_HEAVY_ATOM_COUNT>
12

> <PUBCHEM_ATOM_DEF_STEREO_COUNT>
0

> <PUBCHEM_ATOM_UDEF_STEREO_COUNT>
1

> <PUBCHEM_BOND_DEF_STEREO_COUNT>
0

> <PUBCHEM_BOND_UDEF_STEREO_COUNT>
0

> <PUBCHEM_ISOTOPIC_ATOM_COUNT>
0

> <PUBCHEM_COMPONENT_COUNT>
1

> <PUBCHEM_CACTVS_TAUTO_COUNT>
-1

> <PUBCHEM_COORDINATE_TYPE>
1
5
255

> <PUBCHEM_BONDANNOTATIONS>
10  12  8
11  12  8
3  5  3
4  7  8
4  8  8
7  10  8
8  11  8

$$$$
