23467
  -OEChem-05122608412D

 80 79  0     0  0  0  0  0  0999 V2000
   13.2583   -0.2685    0.0000 P   0  0  0  0  0  0  0  0  0  0  0  0
   14.1244    0.2315    0.0000 O   0  0  0  0  0  0  0  0  0  0  0  0
   12.3923   -0.7685    0.0000 O   0  0  0  0  0  0  0  0  0  0  0  0
   12.7583    0.5976    0.0000 O   0  0  0  0  0  0  0  0  0  0  0  0
   13.7583   -1.1345    0.0000 O   0  0  0  0  0  0  0  0  0  0  0  0
   19.3205    0.2315    0.0000 C   0  0  0  0  0  0  0  0  0  0  0  0
    7.1962   -0.7685    0.0000 C   0  0  0  0  0  0  0  0  0  0  0  0
   20.1865   -0.2685    0.0000 C   0  0  0  0  0  0  0  0  0  0  0  0
    6.3301   -0.2685    0.0000 C   0  0  0  0  0  0  0  0  0  0  0  0
   18.4545   -0.2685    0.0000 C   0  0  0  0  0  0  0  0  0  0  0  0
    8.0622   -0.2685    0.0000 C   0  0  0  0  0  0  0  0  0  0  0  0
   21.0526    0.2315    0.0000 C   0  0  0  0  0  0  0  0  0  0  0  0
    5.4641   -0.7685    0.0000 C   0  0  0  0  0  0  0  0  0  0  0  0
   17.5885    0.2315    0.0000 C   0  0  0  0  0  0  0  0  0  0  0  0
    8.9282   -0.7685    0.0000 C   0  0  0  0  0  0  0  0  0  0  0  0
   21.9186   -0.2685    0.0000 C   0  0  0  0  0  0  0  0  0  0  0  0
    4.5981   -0.2685    0.0000 C   0  0  0  0  0  0  0  0  0  0  0  0
   16.7224   -0.2685    0.0000 C   0  0  0  0  0  0  0  0  0  0  0  0
    9.7942   -0.2685    0.0000 C   0  0  0  0  0  0  0  0  0  0  0  0
   22.7846    0.2315    0.0000 C   0  0  0  0  0  0  0  0  0  0  0  0
    3.7321   -0.7685    0.0000 C   0  0  0  0  0  0  0  0  0  0  0  0
   15.8564    0.2315    0.0000 C   0  0  0  0  0  0  0  0  0  0  0  0
   10.6603   -0.7685    0.0000 C   0  0  0  0  0  0  0  0  0  0  0  0
   23.6506   -0.2685    0.0000 C   0  0  0  0  0  0  0  0  0  0  0  0
    2.8660   -0.2685    0.0000 C   0  0  0  0  0  0  0  0  0  0  0  0
   14.9904   -0.2685    0.0000 C   0  0  0  0  0  0  0  0  0  0  0  0
   11.5263   -0.2685    0.0000 C   0  0  0  0  0  0  0  0  0  0  0  0
   24.5167    0.2315    0.0000 C   0  0  0  0  0  0  0  0  0  0  0  0
    2.0000   -0.7685    0.0000 C   0  0  0  0  0  0  0  0  0  0  0  0
   19.7190    0.7065    0.0000 H   0  0  0  0  0  0  0  0  0  0  0  0
   18.9220    0.7065    0.0000 H   0  0  0  0  0  0  0  0  0  0  0  0
    6.7976   -1.2434    0.0000 H   0  0  0  0  0  0  0  0  0  0  0  0
    7.5947   -1.2434    0.0000 H   0  0  0  0  0  0  0  0  0  0  0  0
   19.7880   -0.7434    0.0000 H   0  0  0  0  0  0  0  0  0  0  0  0
   20.5851   -0.7434    0.0000 H   0  0  0  0  0  0  0  0  0  0  0  0
    6.7287    0.2065    0.0000 H   0  0  0  0  0  0  0  0  0  0  0  0
    5.9316    0.2065    0.0000 H   0  0  0  0  0  0  0  0  0  0  0  0
   18.0560   -0.7434    0.0000 H   0  0  0  0  0  0  0  0  0  0  0  0
   18.8530   -0.7434    0.0000 H   0  0  0  0  0  0  0  0  0  0  0  0
    8.4607    0.2065    0.0000 H   0  0  0  0  0  0  0  0  0  0  0  0
    7.6637    0.2065    0.0000 H   0  0  0  0  0  0  0  0  0  0  0  0
   21.4511    0.7065    0.0000 H   0  0  0  0  0  0  0  0  0  0  0  0
   20.6540    0.7065    0.0000 H   0  0  0  0  0  0  0  0  0  0  0  0
    5.0656   -1.2434    0.0000 H   0  0  0  0  0  0  0  0  0  0  0  0
    5.8626   -1.2434    0.0000 H   0  0  0  0  0  0  0  0  0  0  0  0
   17.9870    0.7065    0.0000 H   0  0  0  0  0  0  0  0  0  0  0  0
   17.1899    0.7065    0.0000 H   0  0  0  0  0  0  0  0  0  0  0  0
    8.5297   -1.2434    0.0000 H   0  0  0  0  0  0  0  0  0  0  0  0
    9.3267   -1.2434    0.0000 H   0  0  0  0  0  0  0  0  0  0  0  0
   21.5201   -0.7434    0.0000 H   0  0  0  0  0  0  0  0  0  0  0  0
   22.3171   -0.7434    0.0000 H   0  0  0  0  0  0  0  0  0  0  0  0
    4.9966    0.2065    0.0000 H   0  0  0  0  0  0  0  0  0  0  0  0
    4.1996    0.2065    0.0000 H   0  0  0  0  0  0  0  0  0  0  0  0
   16.3239   -0.7434    0.0000 H   0  0  0  0  0  0  0  0  0  0  0  0
   17.1210   -0.7434    0.0000 H   0  0  0  0  0  0  0  0  0  0  0  0
   10.1928    0.2065    0.0000 H   0  0  0  0  0  0  0  0  0  0  0  0
    9.3957    0.2065    0.0000 H   0  0  0  0  0  0  0  0  0  0  0  0
   23.1831    0.7065    0.0000 H   0  0  0  0  0  0  0  0  0  0  0  0
   22.3861    0.7065    0.0000 H   0  0  0  0  0  0  0  0  0  0  0  0
    3.3335   -1.2434    0.0000 H   0  0  0  0  0  0  0  0  0  0  0  0
    4.1306   -1.2434    0.0000 H   0  0  0  0  0  0  0  0  0  0  0  0
   16.2549    0.7065    0.0000 H   0  0  0  0  0  0  0  0  0  0  0  0
   15.4579    0.7065    0.0000 H   0  0  0  0  0  0  0  0  0  0  0  0
   10.2617   -1.2434    0.0000 H   0  0  0  0  0  0  0  0  0  0  0  0
   11.0588   -1.2434    0.0000 H   0  0  0  0  0  0  0  0  0  0  0  0
   23.2521   -0.7434    0.0000 H   0  0  0  0  0  0  0  0  0  0  0  0
   24.0492   -0.7434    0.0000 H   0  0  0  0  0  0  0  0  0  0  0  0
    3.2646    0.2065    0.0000 H   0  0  0  0  0  0  0  0  0  0  0  0
    2.4675    0.2065    0.0000 H   0  0  0  0  0  0  0  0  0  0  0  0
   14.5919   -0.7434    0.0000 H   0  0  0  0  0  0  0  0  0  0  0  0
   15.3889   -0.7434    0.0000 H   0  0  0  0  0  0  0  0  0  0  0  0
   11.9248    0.2065    0.0000 H   0  0  0  0  0  0  0  0  0  0  0  0
   11.1278    0.2065    0.0000 H   0  0  0  0  0  0  0  0  0  0  0  0
   24.8267   -0.3054    0.0000 H   0  0  0  0  0  0  0  0  0  0  0  0
   25.0536    0.5415    0.0000 H   0  0  0  0  0  0  0  0  0  0  0  0
   24.2067    0.7685    0.0000 H   0  0  0  0  0  0  0  0  0  0  0  0
    1.6900   -0.2315    0.0000 H   0  0  0  0  0  0  0  0  0  0  0  0
    1.4631   -1.0785    0.0000 H   0  0  0  0  0  0  0  0  0  0  0  0
    2.3100   -1.3054    0.0000 H   0  0  0  0  0  0  0  0  0  0  0  0
   13.0683    1.1345    0.0000 H   0  0  0  0  0  0  0  0  0  0  0  0
  1  2  1  0  0  0  0
  1  3  1  0  0  0  0
  1  4  1  0  0  0  0
  1  5  2  0  0  0  0
  2 26  1  0  0  0  0
  3 27  1  0  0  0  0
  4 80  1  0  0  0  0
  6  8  1  0  0  0  0
  6 10  1  0  0  0  0
  6 30  1  0  0  0  0
  6 31  1  0  0  0  0
  7  9  1  0  0  0  0
  7 11  1  0  0  0  0
  7 32  1  0  0  0  0
  7 33  1  0  0  0  0
  8 12  1  0  0  0  0
  8 34  1  0  0  0  0
  8 35  1  0  0  0  0
  9 13  1  0  0  0  0
  9 36  1  0  0  0  0
  9 37  1  0  0  0  0
 10 14  1  0  0  0  0
 10 38  1  0  0  0  0
 10 39  1  0  0  0  0
 11 15  1  0  0  0  0
 11 40  1  0  0  0  0
 11 41  1  0  0  0  0
 12 16  1  0  0  0  0
 12 42  1  0  0  0  0
 12 43  1  0  0  0  0
 13 17  1  0  0  0  0
 13 44  1  0  0  0  0
 13 45  1  0  0  0  0
 14 18  1  0  0  0  0
 14 46  1  0  0  0  0
 14 47  1  0  0  0  0
 15 19  1  0  0  0  0
 15 48  1  0  0  0  0
 15 49  1  0  0  0  0
 16 20  1  0  0  0  0
 16 50  1  0  0  0  0
 16 51  1  0  0  0  0
 17 21  1  0  0  0  0
 17 52  1  0  0  0  0
 17 53  1  0  0  0  0
 18 22  1  0  0  0  0
 18 54  1  0  0  0  0
 18 55  1  0  0  0  0
 19 23  1  0  0  0  0
 19 56  1  0  0  0  0
 19 57  1  0  0  0  0
 20 24  1  0  0  0  0
 20 58  1  0  0  0  0
 20 59  1  0  0  0  0
 21 25  1  0  0  0  0
 21 60  1  0  0  0  0
 21 61  1  0  0  0  0
 22 26  1  0  0  0  0
 22 62  1  0  0  0  0
 22 63  1  0  0  0  0
 23 27  1  0  0  0  0
 23 64  1  0  0  0  0
 23 65  1  0  0  0  0
 24 28  1  0  0  0  0
 24 66  1  0  0  0  0
 24 67  1  0  0  0  0
 25 29  1  0  0  0  0
 25 68  1  0  0  0  0
 25 69  1  0  0  0  0
 26 70  1  0  0  0  0
 26 71  1  0  0  0  0
 27 72  1  0  0  0  0
 27 73  1  0  0  0  0
 28 74  1  0  0  0  0
 28 75  1  0  0  0  0
 28 76  1  0  0  0  0
 29 77  1  0  0  0  0
 29 78  1  0  0  0  0
 29 79  1  0  0  0  0
M  END
> <PUBCHEM_COMPOUND_CID>
23467

> <PUBCHEM_COMPOUND_CANONICALIZED>
1

> <PUBCHEM_CACTVS_COMPLEXITY>
333

> <PUBCHEM_CACTVS_HBOND_ACCEPTOR>
4

> <PUBCHEM_CACTVS_HBOND_DONOR>
1

> <PUBCHEM_CACTVS_ROTATABLE_BOND>
24

> <PUBCHEM_CACTVS_SUBSKEYS>
AAADcfB4OAIAAAAAAAAAAAAAAAAAAAAAAAAAAAAAAAAAAAAAAAAAGgAACCAACACggAICAAAAARAAQAAAAIAAAAAAAAAAAAAAAAAAAAIAAAAAAAAEAAAAAAGAwKAAAAAAAAAAAAAAAAAAAAAAAAAAAAAAAA==

> <PUBCHEM_IUPAC_OPENEYE_NAME>
didodecyl hydrogen phosphate

> <PUBCHEM_IUPAC_CAS_NAME>
didodecyl hydrogen phosphate

> <PUBCHEM_IUPAC_NAME_MARKUP>
didodecyl hydrogen phosphate

> <PUBCHEM_IUPAC_NAME>
didodecyl hydrogen phosphate

> <PUBCHEM_IUPAC_SYSTEMATIC_NAME>
didodecyl hydrogen phosphate

> <PUBCHEM_IUPAC_TRADITIONAL_NAME>
dilauryl hydrogen phosphate

> <PUBCHEM_IUPAC_INCHI>
InChI=1S/C24H51O4P/c1-3-5-7-9-11-13-15-17-19-21-23-27-29(25,26)28-24-22-20-18-16-14-12-10-8-6-4-2/h3-24H2,1-2H3,(H,25,26)

> <PUBCHEM_IUPAC_INCHIKEY>
JTXUVYOABGUBMX-UHFFFAOYSA-N

> <PUBCHEM_XLOGP3_AA>
10.2

> <PUBCHEM_EXACT_MASS>
434.35249710

> <PUBCHEM_MOLECULAR_FORMULA>
C24H51O4P

> <PUBCHEM_MOLECULAR_WEIGHT>
434.6

> <PUBCHEM_SMILES>
CCCCCCCCCCCCOP(=O)(O)OCCCCCCCCCCCC

> <PUBCHEM_CONNECTIVITY_SMILES>
CCCCCCCCCCCCOP(=O)(O)OCCCCCCCCCCCC

> <PUBCHEM_CACTVS_TPSA>
55.8

> <PUBCHEM_MONOISOTOPIC_WEIGHT>
434.35249710

> <PUBCHEM_TOTAL_CHARGE>
0

> <PUBCHEM_HEAVY_ATOM_COUNT>
29

> <PUBCHEM_ATOM_DEF_STEREO_COUNT>
0

> <PUBCHEM_ATOM_UDEF_STEREO_COUNT>
0

> <PUBCHEM_BOND_DEF_STEREO_COUNT>
0

> <PUBCHEM_BOND_UDEF_STEREO_COUNT>
0

> <PUBCHEM_ISOTOPIC_ATOM_COUNT>
0

> <PUBCHEM_COMPONENT_COUNT>
1

> <PUBCHEM_CACTVS_TAUTO_COUNT>
-1

> <PUBCHEM_COORDINATE_TYPE>
1
5
255

$$$$
