23657801
  -OEChem-05122609592D

106108  0     1  0  0  0  0  0999 V2000
    8.6324   -9.8165    0.0000 Cl  0  0  0  0  0  0  0  0  0  0  0  0
    9.6675    9.8165    0.0000 F   0  0  0  0  0  0  0  0  0  0  0  0
    6.0069    1.5946    0.0000 O   0  0  0  0  0  0  0  0  0  0  0  0
    8.2216    4.4397    0.0000 O   0  0  0  0  0  0  0  0  0  0  0  0
    8.7648   -0.7280    0.0000 O   0  0  0  0  0  0  0  0  0  0  0  0
    6.8650    7.7803    0.0000 O   0  0  0  0  0  0  0  0  0  0  0  0
    6.5500   -3.5731    0.0000 O   0  0  0  0  0  0  0  0  0  0  0  0
    7.4082    2.6126    0.0000 N   0  0  0  0  0  0  0  0  0  0  0  0
    7.1825   -0.0235    0.0000 N   0  0  0  0  0  0  0  0  0  0  0  0
    6.6393    5.1442    0.0000 N   0  0  0  0  0  0  0  0  0  0  0  0
    7.9513   -2.5551    0.0000 N   0  0  0  0  0  0  0  0  0  0  0  0
    5.4638    6.7622    0.0000 N   0  0  0  0  0  0  0  0  0  0  0  0
    4.1989   -0.3371    0.0000 N   0  0  0  0  0  0  0  0  0  0  0  0
    7.8233   -5.2287    0.0000 N   0  0  0  0  0  0  0  0  0  0  0  0
    9.1324   -4.2776    0.0000 N   0  0  0  0  0  0  0  0  0  0  0  0
    8.6324   -5.8165    0.0000 N   0  0  0  0  0  0  0  0  0  0  0  0
    2.6166    0.3674    0.0000 N   0  0  0  0  0  0  0  0  0  0  0  0
    2.7976   -1.3551    0.0000 N   0  0  0  0  0  0  0  0  0  0  0  0
    5.8259    3.3171    0.0000 C   0  0  2  0  0  0  0  0  0  0  0  0
    6.8204    3.4216    0.0000 C   0  0  1  0  0  0  0  0  0  0  0  0
    7.5892    0.8901    0.0000 C   0  0  1  0  0  0  0  0  0  0  0  0
    8.5837    0.9946    0.0000 C   0  0  0  0  0  0  0  0  0  0  0  0
    9.3928    1.5824    0.0000 C   0  0  0  0  0  0  0  0  0  0  0  0
    5.2381    4.1261    0.0000 C   0  0  0  0  0  0  0  0  0  0  0  0
    7.0014    1.6991    0.0000 C   0  0  0  0  0  0  0  0  0  0  0  0
    5.4191    2.4036    0.0000 C   0  0  0  0  0  0  0  0  0  0  0  0
    7.2271    4.3352    0.0000 C   0  0  0  0  0  0  0  0  0  0  0  0
    7.3635   -1.7460    0.0000 C   0  0  2  0  0  0  0  0  0  0  0  0
   10.3063    1.1756    0.0000 C   0  0  0  0  0  0  0  0  0  0  0  0
    9.2882    2.5769    0.0000 C   0  0  0  0  0  0  0  0  0  0  0  0
    4.2436    4.0216    0.0000 C   0  0  0  0  0  0  0  0  0  0  0  0
    7.7703   -0.8325    0.0000 C   0  0  0  0  0  0  0  0  0  0  0  0
    7.0461    6.0578    0.0000 C   0  0  1  0  0  0  0  0  0  0  0  0
    6.3690   -1.8506    0.0000 C   0  0  0  0  0  0  0  0  0  0  0  0
    8.0406    6.1623    0.0000 C   0  0  0  0  0  0  0  0  0  0  0  0
    5.7812   -1.0416    0.0000 C   0  0  0  0  0  0  0  0  0  0  0  0
    6.4583    6.8668    0.0000 C   0  0  0  0  0  0  0  0  0  0  0  0
    8.4473    7.0758    0.0000 C   0  0  0  0  0  0  0  0  0  0  0  0
    4.7867   -1.1461    0.0000 C   0  0  0  0  0  0  0  0  0  0  0  0
    7.5446   -3.4686    0.0000 C   0  0  0  0  0  0  0  0  0  0  0  0
    7.8595    7.8848    0.0000 C   0  0  0  0  0  0  0  0  0  0  0  0
    9.4418    7.1804    0.0000 C   0  0  0  0  0  0  0  0  0  0  0  0
    8.1324   -4.2776    0.0000 C   0  0  0  0  0  0  0  0  0  0  0  0
    8.2663    8.7984    0.0000 C   0  0  0  0  0  0  0  0  0  0  0  0
    9.8486    8.0939    0.0000 C   0  0  0  0  0  0  0  0  0  0  0  0
    9.2608    8.9029    0.0000 C   0  0  0  0  0  0  0  0  0  0  0  0
    3.2044   -0.4416    0.0000 C   0  0  0  0  0  0  0  0  0  0  0  0
    9.4414   -5.2287    0.0000 C   0  0  0  0  0  0  0  0  0  0  0  0
    8.6324   -6.8165    0.0000 C   0  0  0  0  0  0  0  0  0  0  0  0
   10.3924   -5.5377    0.0000 C   0  0  0  0  0  0  0  0  0  0  0  0
    9.4984   -7.3165    0.0000 C   0  0  0  0  0  0  0  0  0  0  0  0
    7.7663   -7.3165    0.0000 C   0  0  0  0  0  0  0  0  0  0  0  0
    9.4984   -8.3165    0.0000 C   0  0  0  0  0  0  0  0  0  0  0  0
    7.7663   -8.3165    0.0000 C   0  0  0  0  0  0  0  0  0  0  0  0
    8.6324   -8.8165    0.0000 C   0  0  0  0  0  0  0  0  0  0  0  0
    5.2092    3.2523    0.0000 H   0  0  0  0  0  0  0  0  0  0  0  0
    7.4370    3.4864    0.0000 H   0  0  0  0  0  0  0  0  0  0  0  0
    6.9726    0.8253    0.0000 H   0  0  0  0  0  0  0  0  0  0  0  0
    8.4337    0.3930    0.0000 H   0  0  0  0  0  0  0  0  0  0  0  0
    8.3616    1.5734    0.0000 H   0  0  0  0  0  0  0  0  0  0  0  0
    9.4576    0.9658    0.0000 H   0  0  0  0  0  0  0  0  0  0  0  0
    5.7953    4.3979    0.0000 H   0  0  0  0  0  0  0  0  0  0  0  0
    5.0672    4.7221    0.0000 H   0  0  0  0  0  0  0  0  0  0  0  0
    8.0248    2.6774    0.0000 H   0  0  0  0  0  0  0  0  0  0  0  0
    4.8527    2.6558    0.0000 H   0  0  0  0  0  0  0  0  0  0  0  0
    5.1669    1.8372    0.0000 H   0  0  0  0  0  0  0  0  0  0  0  0
    5.9855    2.1514    0.0000 H   0  0  0  0  0  0  0  0  0  0  0  0
    6.5659   -0.0883    0.0000 H   0  0  0  0  0  0  0  0  0  0  0  0
    7.9801   -1.6812    0.0000 H   0  0  0  0  0  0  0  0  0  0  0  0
   10.0541    0.6092    0.0000 H   0  0  0  0  0  0  0  0  0  0  0  0
   10.8727    0.9235    0.0000 H   0  0  0  0  0  0  0  0  0  0  0  0
   10.5585    1.7420    0.0000 H   0  0  0  0  0  0  0  0  0  0  0  0
    9.9048    2.6417    0.0000 H   0  0  0  0  0  0  0  0  0  0  0  0
    9.2234    3.1935    0.0000 H   0  0  0  0  0  0  0  0  0  0  0  0
    8.6716    2.5121    0.0000 H   0  0  0  0  0  0  0  0  0  0  0  0
    4.1787    4.6382    0.0000 H   0  0  0  0  0  0  0  0  0  0  0  0
    3.6270    3.9568    0.0000 H   0  0  0  0  0  0  0  0  0  0  0  0
    4.3084    3.4050    0.0000 H   0  0  0  0  0  0  0  0  0  0  0  0
    6.0227    5.0794    0.0000 H   0  0  0  0  0  0  0  0  0  0  0  0
    7.4105    5.5562    0.0000 H   0  0  0  0  0  0  0  0  0  0  0  0
    5.8118   -2.1224    0.0000 H   0  0  0  0  0  0  0  0  0  0  0  0
    6.5399   -2.4465    0.0000 H   0  0  0  0  0  0  0  0  0  0  0  0
    7.9973    5.5438    0.0000 H   0  0  0  0  0  0  0  0  0  0  0  0
    8.6422    6.0123    0.0000 H   0  0  0  0  0  0  0  0  0  0  0  0
    6.3385   -0.7698    0.0000 H   0  0  0  0  0  0  0  0  0  0  0  0
    5.6103   -0.4456    0.0000 H   0  0  0  0  0  0  0  0  0  0  0  0
    8.5679   -2.4902    0.0000 H   0  0  0  0  0  0  0  0  0  0  0  0
    4.2294   -1.4179    0.0000 H   0  0  0  0  0  0  0  0  0  0  0  0
    4.9576   -1.7421    0.0000 H   0  0  0  0  0  0  0  0  0  0  0  0
    7.2429    7.8200    0.0000 H   0  0  0  0  0  0  0  0  0  0  0  0
    9.8063    6.6788    0.0000 H   0  0  0  0  0  0  0  0  0  0  0  0
    5.0993    7.2638    0.0000 H   0  0  0  0  0  0  0  0  0  0  0  0
    5.2116    6.1958    0.0000 H   0  0  0  0  0  0  0  0  0  0  0  0
    7.9018    9.3000    0.0000 H   0  0  0  0  0  0  0  0  0  0  0  0
   10.4652    8.1587    0.0000 H   0  0  0  0  0  0  0  0  0  0  0  0
   10.2008   -6.1274    0.0000 H   0  0  0  0  0  0  0  0  0  0  0  0
   10.9821   -5.7293    0.0000 H   0  0  0  0  0  0  0  0  0  0  0  0
   10.5840   -4.9480    0.0000 H   0  0  0  0  0  0  0  0  0  0  0  0
    2.0000    0.3026    0.0000 H   0  0  0  0  0  0  0  0  0  0  0  0
    2.8688    0.9338    0.0000 H   0  0  0  0  0  0  0  0  0  0  0  0
    2.1810   -1.4200    0.0000 H   0  0  0  0  0  0  0  0  0  0  0  0
    3.1621   -1.8567    0.0000 H   0  0  0  0  0  0  0  0  0  0  0  0
   10.0353   -7.0065    0.0000 H   0  0  0  0  0  0  0  0  0  0  0  0
    7.2294   -7.0065    0.0000 H   0  0  0  0  0  0  0  0  0  0  0  0
   10.0353   -8.6265    0.0000 H   0  0  0  0  0  0  0  0  0  0  0  0
    7.2294   -8.6265    0.0000 H   0  0  0  0  0  0  0  0  0  0  0  0
  1 55  1  0  0  0  0
  2 46  1  0  0  0  0
  3 25  2  0  0  0  0
  4 27  2  0  0  0  0
  5 32  2  0  0  0  0
  6 37  2  0  0  0  0
  7 40  2  0  0  0  0
 20  8  1  1  0  0  0
  8 25  1  0  0  0  0
  8 64  1  0  0  0  0
 21  9  1  6  0  0  0
  9 32  1  0  0  0  0
  9 68  1  0  0  0  0
 10 27  1  0  0  0  0
 33 10  1  6  0  0  0
 10 79  1  0  0  0  0
 28 11  1  1  0  0  0
 11 40  1  0  0  0  0
 11 87  1  0  0  0  0
 12 37  1  0  0  0  0
 12 92  1  0  0  0  0
 12 93  1  0  0  0  0
 13 39  1  0  0  0  0
 13 47  2  0  0  0  0
 14 16  1  0  0  0  0
 14 43  2  0  0  0  0
 15 43  1  0  0  0  0
 15 48  2  0  0  0  0
 16 48  1  0  0  0  0
 16 49  1  0  0  0  0
 17 47  1  0  0  0  0
 17 99  1  0  0  0  0
 17100  1  0  0  0  0
 18 47  1  0  0  0  0
 18101  1  0  0  0  0
 18102  1  0  0  0  0
 19 20  1  0  0  0  0
 19 24  1  0  0  0  0
 19 26  1  1  0  0  0
 19 56  1  0  0  0  0
 20 27  1  0  0  0  0
 20 57  1  0  0  0  0
 21 22  1  0  0  0  0
 21 25  1  0  0  0  0
 21 58  1  0  0  0  0
 22 23  1  0  0  0  0
 22 59  1  0  0  0  0
 22 60  1  0  0  0  0
 23 29  1  0  0  0  0
 23 30  1  0  0  0  0
 23 61  1  0  0  0  0
 24 31  1  0  0  0  0
 24 62  1  0  0  0  0
 24 63  1  0  0  0  0
 26 65  1  0  0  0  0
 26 66  1  0  0  0  0
 26 67  1  0  0  0  0
 28 32  1  0  0  0  0
 28 34  1  0  0  0  0
 28 69  1  0  0  0  0
 29 70  1  0  0  0  0
 29 71  1  0  0  0  0
 29 72  1  0  0  0  0
 30 73  1  0  0  0  0
 30 74  1  0  0  0  0
 30 75  1  0  0  0  0
 31 76  1  0  0  0  0
 31 77  1  0  0  0  0
 31 78  1  0  0  0  0
 33 35  1  0  0  0  0
 33 37  1  0  0  0  0
 33 80  1  0  0  0  0
 34 36  1  0  0  0  0
 34 81  1  0  0  0  0
 34 82  1  0  0  0  0
 35 38  1  0  0  0  0
 35 83  1  0  0  0  0
 35 84  1  0  0  0  0
 36 39  1  0  0  0  0
 36 85  1  0  0  0  0
 36 86  1  0  0  0  0
 38 41  2  0  0  0  0
 38 42  1  0  0  0  0
 39 88  1  0  0  0  0
 39 89  1  0  0  0  0
 40 43  1  0  0  0  0
 41 44  1  0  0  0  0
 41 90  1  0  0  0  0
 42 45  2  0  0  0  0
 42 91  1  0  0  0  0
 44 46  2  0  0  0  0
 44 94  1  0  0  0  0
 45 46  1  0  0  0  0
 45 95  1  0  0  0  0
 48 50  1  0  0  0  0
 49 51  2  0  0  0  0
 49 52  1  0  0  0  0
 50 96  1  0  0  0  0
 50 97  1  0  0  0  0
 50 98  1  0  0  0  0
 51 53  1  0  0  0  0
 51103  1  0  0  0  0
 52 54  2  0  0  0  0
 52104  1  0  0  0  0
 53 55  2  0  0  0  0
 53105  1  0  0  0  0
 54 55  1  0  0  0  0
 54106  1  0  0  0  0
M  END
> <PUBCHEM_COMPOUND_CID>
23657801

> <PUBCHEM_COMPOUND_CANONICALIZED>
1

> <PUBCHEM_CACTVS_COMPLEXITY>
1310

> <PUBCHEM_CACTVS_HBOND_ACCEPTOR>
9

> <PUBCHEM_CACTVS_HBOND_DONOR>
7

> <PUBCHEM_CACTVS_ROTATABLE_BOND>
20

> <PUBCHEM_CACTVS_SUBSKEYS>
AAADcfB/+QAEAAAAAAAAAAAAAAAAAWAAAAAwYAAAAAAAAAAB0AAAHwIYAAAADSrBmywz0IbIEACqAidydACShCsjB6AdiIGYZoiIaDLBm7GUIAhongLIyCcYiYCOAABAAAAAAAAAAIAAAAAAAAAAAAAAAA==

> <PUBCHEM_IUPAC_OPENEYE_NAME>
N-[(1S)-1-[[(1S)-1-[[(1S,2S)-1-[[(1S)-2-amino-1-[(4-fluorophenyl)methyl]-2-oxo-ethyl]carbamoyl]-2-methyl-butyl]carbamoyl]-3-methyl-butyl]carbamoyl]-4-guanidino-butyl]-1-(4-chlorophenyl)-5-methyl-1,2,4-triazole-3-carboxamide

> <PUBCHEM_IUPAC_CAS_NAME>
N-[(2S)-1-[[(2S)-1-[[(2S,3S)-1-[[(2S)-1-amino-3-(4-fluorophenyl)-1-oxopropan-2-yl]amino]-3-methyl-1-oxopentan-2-yl]amino]-4-methyl-1-oxopentan-2-yl]amino]-5-(diaminomethylideneamino)-1-oxopentan-2-yl]-1-(4-chlorophenyl)-5-methyl-1,2,4-triazole-3-carboxamide

> <PUBCHEM_IUPAC_NAME_MARKUP>
<I>N</I>-[(2<I>S</I>)-1-[[(2<I>S</I>)-1-[[(2<I>S</I>,3<I>S</I>)-1-[[(2<I>S</I>)-1-amino-3-(4-fluorophenyl)-1-oxopropan-2-yl]amino]-3-methyl-1-oxopentan-2-yl]amino]-4-methyl-1-oxopentan-2-yl]amino]-5-(diaminomethylideneamino)-1-oxopentan-2-yl]-1-(4-chlorophenyl)-5-methyl-1,2,4-triazole-3-carboxamide

> <PUBCHEM_IUPAC_NAME>
N-[(2S)-1-[[(2S)-1-[[(2S,3S)-1-[[(2S)-1-amino-3-(4-fluorophenyl)-1-oxopropan-2-yl]amino]-3-methyl-1-oxopentan-2-yl]amino]-4-methyl-1-oxopentan-2-yl]amino]-5-(diaminomethylideneamino)-1-oxopentan-2-yl]-1-(4-chlorophenyl)-5-methyl-1,2,4-triazole-3-carboxamide

> <PUBCHEM_IUPAC_SYSTEMATIC_NAME>
N-[(2S)-1-[[(2S)-1-[[(2S,3S)-1-[[(2S)-1-azanyl-3-(4-fluorophenyl)-1-oxidanylidene-propan-2-yl]amino]-3-methyl-1-oxidanylidene-pentan-2-yl]amino]-4-methyl-1-oxidanylidene-pentan-2-yl]amino]-5-[bis(azanyl)methylideneamino]-1-oxidanylidene-pentan-2-yl]-1-(4-chlorophenyl)-5-methyl-1,2,4-triazole-3-carboxamide

> <PUBCHEM_IUPAC_TRADITIONAL_NAME>
N-[(1S)-1-[[(1S)-1-[[(1S,2S)-1-[[(1S)-2-amino-1-(4-fluorobenzyl)-2-keto-ethyl]carbamoyl]-2-methyl-butyl]carbamoyl]-3-methyl-butyl]carbamoyl]-4-guanidino-butyl]-1-(4-chlorophenyl)-5-methyl-1,2,4-triazole-3-carboxamide

> <PUBCHEM_IUPAC_INCHI>
InChI=1S/C37H51ClFN11O5/c1-6-21(4)30(35(54)46-28(31(40)51)19-23-9-13-25(39)14-10-23)48-34(53)29(18-20(2)3)47-33(52)27(8-7-17-43-37(41)42)45-36(55)32-44-22(5)50(49-32)26-15-11-24(38)12-16-26/h9-16,20-21,27-30H,6-8,17-19H2,1-5H3,(H2,40,51)(H,45,55)(H,46,54)(H,47,52)(H,48,53)(H4,41,42,43)/t21-,27-,28-,29-,30-/m0/s1

> <PUBCHEM_IUPAC_INCHIKEY>
KPJZLROHGAJEAN-WRTIUAHLSA-N

> <PUBCHEM_XLOGP3_AA>
4

> <PUBCHEM_EXACT_MASS>
783.3747196

> <PUBCHEM_MOLECULAR_FORMULA>
C37H51ClFN11O5

> <PUBCHEM_MOLECULAR_WEIGHT>
784.3

> <PUBCHEM_SMILES>
CC[C@H](C)[C@@H](C(=O)N[C@@H](CC1=CC=C(C=C1)F)C(=O)N)NC(=O)[C@H](CC(C)C)NC(=O)[C@H](CCCN=C(N)N)NC(=O)C2=NN(C(=N2)C)C3=CC=C(C=C3)Cl

> <PUBCHEM_CONNECTIVITY_SMILES>
CCC(C)C(C(=O)NC(CC1=CC=C(C=C1)F)C(=O)N)NC(=O)C(CC(C)C)NC(=O)C(CCCN=C(N)N)NC(=O)C2=NN(C(=N2)C)C3=CC=C(C=C3)Cl

> <PUBCHEM_CACTVS_TPSA>
255

> <PUBCHEM_MONOISOTOPIC_WEIGHT>
783.3747196

> <PUBCHEM_TOTAL_CHARGE>
0

> <PUBCHEM_HEAVY_ATOM_COUNT>
55

> <PUBCHEM_ATOM_DEF_STEREO_COUNT>
5

> <PUBCHEM_ATOM_UDEF_STEREO_COUNT>
0

> <PUBCHEM_BOND_DEF_STEREO_COUNT>
0

> <PUBCHEM_BOND_UDEF_STEREO_COUNT>
0

> <PUBCHEM_ISOTOPIC_ATOM_COUNT>
0

> <PUBCHEM_COMPONENT_COUNT>
1

> <PUBCHEM_CACTVS_TAUTO_COUNT>
-1

> <PUBCHEM_COORDINATE_TYPE>
1
5
255

> <PUBCHEM_BONDANNOTATIONS>
33  10  6
28  11  5
14  16  8
14  43  8
15  43  8
15  48  8
16  48  8
19  26  5
38  41  8
38  42  8
41  44  8
42  45  8
44  46  8
45  46  8
49  51  8
49  52  8
51  53  8
52  54  8
53  55  8
54  55  8
20  8  5
21  9  6

$$$$
