23687994
  -OEChem-05122608202D

 42 40  0     0  0  0  0  0  0999 V2000
   13.2583    3.0000    0.0000 S   0  0  0  0  0  0  0  0  0  0  0  0
   14.9904    3.0000    0.0000 Na  0  3  0  0  0  0  0  0  0  0  0  0
    7.5622    0.8660    0.0000 F   0  0  0  0  0  0  0  0  0  0  0  0
    8.5622   -0.8660    0.0000 F   0  0  0  0  0  0  0  0  0  0  0  0
    8.4282    1.3660    0.0000 F   0  0  0  0  0  0  0  0  0  0  0  0
    9.4282   -0.3660    0.0000 F   0  0  0  0  0  0  0  0  0  0  0  0
    6.6962    0.3660    0.0000 F   0  0  0  0  0  0  0  0  0  0  0  0
    7.6962   -1.3660    0.0000 F   0  0  0  0  0  0  0  0  0  0  0  0
   10.2942    0.1340    0.0000 F   0  0  0  0  0  0  0  0  0  0  0  0
    9.2942    1.8660    0.0000 F   0  0  0  0  0  0  0  0  0  0  0  0
    5.8301   -0.1340    0.0000 F   0  0  0  0  0  0  0  0  0  0  0  0
    6.8301   -1.8660    0.0000 F   0  0  0  0  0  0  0  0  0  0  0  0
   11.1603    0.6340    0.0000 F   0  0  0  0  0  0  0  0  0  0  0  0
   10.1603    2.3660    0.0000 F   0  0  0  0  0  0  0  0  0  0  0  0
    4.9641   -0.6340    0.0000 F   0  0  0  0  0  0  0  0  0  0  0  0
    5.9641   -2.3660    0.0000 F   0  0  0  0  0  0  0  0  0  0  0  0
   12.0263    1.1340    0.0000 F   0  0  0  0  0  0  0  0  0  0  0  0
   11.0263    2.8660    0.0000 F   0  0  0  0  0  0  0  0  0  0  0  0
    4.0981   -1.1340    0.0000 F   0  0  0  0  0  0  0  0  0  0  0  0
    5.0981   -2.8660    0.0000 F   0  0  0  0  0  0  0  0  0  0  0  0
   12.8923    1.6340    0.0000 F   0  0  0  0  0  0  0  0  0  0  0  0
   11.8923    3.3660    0.0000 F   0  0  0  0  0  0  0  0  0  0  0  0
    3.2320   -1.6340    0.0000 F   0  0  0  0  0  0  0  0  0  0  0  0
    4.2320   -3.3660    0.0000 F   0  0  0  0  0  0  0  0  0  0  0  0
    2.0000   -3.5000    0.0000 F   0  0  0  0  0  0  0  0  0  0  0  0
    2.3660   -2.1340    0.0000 F   0  0  0  0  0  0  0  0  0  0  0  0
    3.3660   -3.8660    0.0000 F   0  0  0  0  0  0  0  0  0  0  0  0
   14.1244    3.5000    0.0000 O   0  5  0  0  0  0  0  0  0  0  0  0
   13.7583    2.1340    0.0000 O   0  0  0  0  0  0  0  0  0  0  0  0
   12.7583    3.8660    0.0000 O   0  0  0  0  0  0  0  0  0  0  0  0
    8.0622    0.0000    0.0000 C   0  0  0  0  0  0  0  0  0  0  0  0
    8.9282    0.5000    0.0000 C   0  0  0  0  0  0  0  0  0  0  0  0
    7.1962   -0.5000    0.0000 C   0  0  0  0  0  0  0  0  0  0  0  0
    9.7942    1.0000    0.0000 C   0  0  0  0  0  0  0  0  0  0  0  0
    6.3301   -1.0000    0.0000 C   0  0  0  0  0  0  0  0  0  0  0  0
   10.6603    1.5000    0.0000 C   0  0  0  0  0  0  0  0  0  0  0  0
    5.4641   -1.5000    0.0000 C   0  0  0  0  0  0  0  0  0  0  0  0
   11.5263    2.0000    0.0000 C   0  0  0  0  0  0  0  0  0  0  0  0
    4.5981   -2.0000    0.0000 C   0  0  0  0  0  0  0  0  0  0  0  0
   12.3923    2.5000    0.0000 C   0  0  0  0  0  0  0  0  0  0  0  0
    3.7320   -2.5000    0.0000 C   0  0  0  0  0  0  0  0  0  0  0  0
    2.8660   -3.0000    0.0000 C   0  0  0  0  0  0  0  0  0  0  0  0
  1 28  1  0  0  0  0
  1 29  2  0  0  0  0
  1 30  2  0  0  0  0
  1 40  1  0  0  0  0
  3 31  1  0  0  0  0
  4 31  1  0  0  0  0
  5 32  1  0  0  0  0
  6 32  1  0  0  0  0
  7 33  1  0  0  0  0
  8 33  1  0  0  0  0
  9 34  1  0  0  0  0
 10 34  1  0  0  0  0
 11 35  1  0  0  0  0
 12 35  1  0  0  0  0
 13 36  1  0  0  0  0
 14 36  1  0  0  0  0
 15 37  1  0  0  0  0
 16 37  1  0  0  0  0
 17 38  1  0  0  0  0
 18 38  1  0  0  0  0
 19 39  1  0  0  0  0
 20 39  1  0  0  0  0
 21 40  1  0  0  0  0
 22 40  1  0  0  0  0
 23 41  1  0  0  0  0
 24 41  1  0  0  0  0
 25 42  1  0  0  0  0
 26 42  1  0  0  0  0
 27 42  1  0  0  0  0
 31 32  1  0  0  0  0
 31 33  1  0  0  0  0
 32 34  1  0  0  0  0
 33 35  1  0  0  0  0
 34 36  1  0  0  0  0
 35 37  1  0  0  0  0
 36 38  1  0  0  0  0
 37 39  1  0  0  0  0
 38 40  1  0  0  0  0
 39 41  1  0  0  0  0
 41 42  1  0  0  0  0
M  CHG  2   2   1  28  -1
M  END
> <PUBCHEM_COMPOUND_CID>
23687994

> <PUBCHEM_COMPOUND_CANONICALIZED>
1

> <PUBCHEM_CACTVS_COMPLEXITY>
1100

> <PUBCHEM_CACTVS_HBOND_ACCEPTOR>
28

> <PUBCHEM_CACTVS_HBOND_DONOR>
0

> <PUBCHEM_CACTVS_ROTATABLE_BOND>
11

> <PUBCHEM_CACTVS_SUBSKEYS>
AAADcQBwMeBAAAAAAAAAAAAAAAAAAAAAAAAAAAAAAAAAAAAAAAAACQQAAAAACAAAQBAAAAAAAAIAAAAAAHBAAAAAAAAAAAAAAAAAAAIAAAAAAAAAAAAAAAEAgIAAAAAAAAAAAAAAAAAAAAAAAAAAAAAAAA==

> <PUBCHEM_IUPAC_OPENEYE_NAME>
sodium 1,1,2,2,3,3,4,4,5,5,6,6,7,7,8,8,9,9,10,10,11,11,12,12,12-pentacosafluorododecane-1-sulfonate

> <PUBCHEM_IUPAC_CAS_NAME>
sodium 1,1,2,2,3,3,4,4,5,5,6,6,7,7,8,8,9,9,10,10,11,11,12,12,12-pentacosafluoro-1-dodecanesulfonate

> <PUBCHEM_IUPAC_NAME_MARKUP>
sodium 1,1,2,2,3,3,4,4,5,5,6,6,7,7,8,8,9,9,10,10,11,11,12,12,12-pentacosafluorododecane-1-sulfonate

> <PUBCHEM_IUPAC_NAME>
sodium 1,1,2,2,3,3,4,4,5,5,6,6,7,7,8,8,9,9,10,10,11,11,12,12,12-pentacosafluorododecane-1-sulfonate

> <PUBCHEM_IUPAC_SYSTEMATIC_NAME>
sodium 1,1,2,2,3,3,4,4,5,5,6,6,7,7,8,8,9,9,10,10,11,11,12,12,12-pentacosakis(fluoranyl)dodecane-1-sulfonate

> <PUBCHEM_IUPAC_TRADITIONAL_NAME>
sodium 1,1,2,2,3,3,4,4,5,5,6,6,7,7,8,8,9,9,10,10,11,11,12,12,12-pentacosafluorododecane-1-sulfonate

> <PUBCHEM_IUPAC_INCHI>
InChI=1S/C12HF25O3S.Na/c13-1(14,3(17,18)5(21,22)7(25,26)9(29,30)11(33,34)35)2(15,16)4(19,20)6(23,24)8(27,28)10(31,32)12(36,37)41(38,39)40;/h(H,38,39,40);/q;+1/p-1

> <PUBCHEM_IUPAC_INCHIKEY>
ISSKPZWQMGEHLZ-UHFFFAOYSA-M

> <PUBCHEM_EXACT_MASS>
721.9066634

> <PUBCHEM_MOLECULAR_FORMULA>
C12F25NaO3S

> <PUBCHEM_MOLECULAR_WEIGHT>
722.14

> <PUBCHEM_SMILES>
C(C(C(C(C(C(C(F)(F)S(=O)(=O)[O-])(F)F)(F)F)(F)F)(F)F)(F)F)(C(C(C(C(C(F)(F)F)(F)F)(F)F)(F)F)(F)F)(F)F.[Na+]

> <PUBCHEM_CONNECTIVITY_SMILES>
C(C(C(C(C(C(C(F)(F)S(=O)(=O)[O-])(F)F)(F)F)(F)F)(F)F)(F)F)(C(C(C(C(C(F)(F)F)(F)F)(F)F)(F)F)(F)F)(F)F.[Na+]

> <PUBCHEM_CACTVS_TPSA>
65.6

> <PUBCHEM_MONOISOTOPIC_WEIGHT>
721.9066634

> <PUBCHEM_TOTAL_CHARGE>
0

> <PUBCHEM_HEAVY_ATOM_COUNT>
42

> <PUBCHEM_ATOM_DEF_STEREO_COUNT>
0

> <PUBCHEM_ATOM_UDEF_STEREO_COUNT>
0

> <PUBCHEM_BOND_DEF_STEREO_COUNT>
0

> <PUBCHEM_BOND_UDEF_STEREO_COUNT>
0

> <PUBCHEM_ISOTOPIC_ATOM_COUNT>
0

> <PUBCHEM_COMPONENT_COUNT>
2

> <PUBCHEM_CACTVS_TAUTO_COUNT>
-1

> <PUBCHEM_NONSTANDARDBOND>
2  28  7

> <PUBCHEM_COORDINATE_TYPE>
1
5
255

$$$$
