2374
  -OEChem-05122609402D

 38 38  0     0  0  0  0  0  0999 V2000
    6.0010   -1.0000    0.0000 O   0  0  0  0  0  0  0  0  0  0  0  0
    2.5369    1.0000    0.0000 O   0  0  0  0  0  0  0  0  0  0  0  0
    4.2690   -2.0000    0.0000 C   0  0  0  0  0  0  0  0  0  0  0  0
    4.2690    2.0000    0.0000 C   0  0  0  0  0  0  0  0  0  0  0  0
    4.2690   -1.0000    0.0000 C   0  0  0  0  0  0  0  0  0  0  0  0
    4.2690    1.0000    0.0000 C   0  0  0  0  0  0  0  0  0  0  0  0
    5.1350   -0.5000    0.0000 C   0  0  0  0  0  0  0  0  0  0  0  0
    3.4030    0.5000    0.0000 C   0  0  0  0  0  0  0  0  0  0  0  0
    3.4030   -0.5000    0.0000 C   0  0  0  0  0  0  0  0  0  0  0  0
    5.1350    0.5000    0.0000 C   0  0  0  0  0  0  0  0  0  0  0  0
    4.2690   -3.0000    0.0000 C   0  0  0  0  0  0  0  0  0  0  0  0
    3.2690   -2.0000    0.0000 C   0  0  0  0  0  0  0  0  0  0  0  0
    5.2690   -2.0000    0.0000 C   0  0  0  0  0  0  0  0  0  0  0  0
    4.2690    3.0000    0.0000 C   0  0  0  0  0  0  0  0  0  0  0  0
    5.2690    2.0000    0.0000 C   0  0  0  0  0  0  0  0  0  0  0  0
    3.2690    2.0000    0.0000 C   0  0  0  0  0  0  0  0  0  0  0  0
    2.8660   -0.8100    0.0000 H   0  0  0  0  0  0  0  0  0  0  0  0
    5.6720    0.8100    0.0000 H   0  0  0  0  0  0  0  0  0  0  0  0
    3.6490   -3.0000    0.0000 H   0  0  0  0  0  0  0  0  0  0  0  0
    4.2690   -3.6200    0.0000 H   0  0  0  0  0  0  0  0  0  0  0  0
    4.8890   -3.0000    0.0000 H   0  0  0  0  0  0  0  0  0  0  0  0
    3.2690   -1.3800    0.0000 H   0  0  0  0  0  0  0  0  0  0  0  0
    2.6490   -2.0000    0.0000 H   0  0  0  0  0  0  0  0  0  0  0  0
    3.2690   -2.6200    0.0000 H   0  0  0  0  0  0  0  0  0  0  0  0
    5.2690   -2.6200    0.0000 H   0  0  0  0  0  0  0  0  0  0  0  0
    5.8890   -2.0000    0.0000 H   0  0  0  0  0  0  0  0  0  0  0  0
    5.2690   -1.3800    0.0000 H   0  0  0  0  0  0  0  0  0  0  0  0
    4.8890    3.0000    0.0000 H   0  0  0  0  0  0  0  0  0  0  0  0
    4.2690    3.6200    0.0000 H   0  0  0  0  0  0  0  0  0  0  0  0
    3.6490    3.0000    0.0000 H   0  0  0  0  0  0  0  0  0  0  0  0
    5.2690    1.3800    0.0000 H   0  0  0  0  0  0  0  0  0  0  0  0
    5.8890    2.0000    0.0000 H   0  0  0  0  0  0  0  0  0  0  0  0
    5.2690    2.6200    0.0000 H   0  0  0  0  0  0  0  0  0  0  0  0
    3.2690    2.6200    0.0000 H   0  0  0  0  0  0  0  0  0  0  0  0
    2.6490    2.0000    0.0000 H   0  0  0  0  0  0  0  0  0  0  0  0
    3.2690    1.3800    0.0000 H   0  0  0  0  0  0  0  0  0  0  0  0
    6.5380   -0.6900    0.0000 H   0  0  0  0  0  0  0  0  0  0  0  0
    2.0000    0.6900    0.0000 H   0  0  0  0  0  0  0  0  0  0  0  0
  1  7  1  0  0  0  0
  1 37  1  0  0  0  0
  2  8  1  0  0  0  0
  2 38  1  0  0  0  0
  3  5  1  0  0  0  0
  3 11  1  0  0  0  0
  3 12  1  0  0  0  0
  3 13  1  0  0  0  0
  4  6  1  0  0  0  0
  4 14  1  0  0  0  0
  4 15  1  0  0  0  0
  4 16  1  0  0  0  0
  5  7  2  0  0  0  0
  5  9  1  0  0  0  0
  6  8  1  0  0  0  0
  6 10  2  0  0  0  0
  7 10  1  0  0  0  0
  8  9  2  0  0  0  0
  9 17  1  0  0  0  0
 10 18  1  0  0  0  0
 11 19  1  0  0  0  0
 11 20  1  0  0  0  0
 11 21  1  0  0  0  0
 12 22  1  0  0  0  0
 12 23  1  0  0  0  0
 12 24  1  0  0  0  0
 13 25  1  0  0  0  0
 13 26  1  0  0  0  0
 13 27  1  0  0  0  0
 14 28  1  0  0  0  0
 14 29  1  0  0  0  0
 14 30  1  0  0  0  0
 15 31  1  0  0  0  0
 15 32  1  0  0  0  0
 15 33  1  0  0  0  0
 16 34  1  0  0  0  0
 16 35  1  0  0  0  0
 16 36  1  0  0  0  0
M  END
> <PUBCHEM_COMPOUND_CID>
2374

> <PUBCHEM_COMPOUND_CANONICALIZED>
1

> <PUBCHEM_CACTVS_COMPLEXITY>
208

> <PUBCHEM_CACTVS_HBOND_ACCEPTOR>
2

> <PUBCHEM_CACTVS_HBOND_DONOR>
2

> <PUBCHEM_CACTVS_ROTATABLE_BOND>
2

> <PUBCHEM_CACTVS_SUBSKEYS>
AAADceBwMAAAAAAAAAAAAAAAAAAAAAAAAAAwAAAAAAAAAAABAAAAGgAACAAADgSAmAAyBoAAAgCAAiBCAAACAAAgIAAAiAAGCIgIJiKCEBKAcAAkwBEImAfAwPAPwQABAAAIAACCAAIAABAAAAAAAAAAAA==

> <PUBCHEM_IUPAC_OPENEYE_NAME>
2,5-ditert-butylbenzene-1,4-diol

> <PUBCHEM_IUPAC_CAS_NAME>
2,5-ditert-butylbenzene-1,4-diol

> <PUBCHEM_IUPAC_NAME_MARKUP>
2,5-di<I>tert</I>-butylbenzene-1,4-diol

> <PUBCHEM_IUPAC_NAME>
2,5-ditert-butylbenzene-1,4-diol

> <PUBCHEM_IUPAC_SYSTEMATIC_NAME>
2,5-ditert-butylbenzene-1,4-diol

> <PUBCHEM_IUPAC_TRADITIONAL_NAME>
2,5-ditert-butylhydroquinone

> <PUBCHEM_IUPAC_INCHI>
InChI=1S/C14H22O2/c1-13(2,3)9-7-12(16)10(8-11(9)15)14(4,5)6/h7-8,15-16H,1-6H3

> <PUBCHEM_IUPAC_INCHIKEY>
JZODKRWQWUWGCD-UHFFFAOYSA-N

> <PUBCHEM_XLOGP3_AA>
4.6

> <PUBCHEM_EXACT_MASS>
222.161979940

> <PUBCHEM_MOLECULAR_FORMULA>
C14H22O2

> <PUBCHEM_MOLECULAR_WEIGHT>
222.32

> <PUBCHEM_SMILES>
CC(C)(C)C1=CC(=C(C=C1O)C(C)(C)C)O

> <PUBCHEM_CONNECTIVITY_SMILES>
CC(C)(C)C1=CC(=C(C=C1O)C(C)(C)C)O

> <PUBCHEM_CACTVS_TPSA>
40.5

> <PUBCHEM_MONOISOTOPIC_WEIGHT>
222.161979940

> <PUBCHEM_TOTAL_CHARGE>
0

> <PUBCHEM_HEAVY_ATOM_COUNT>
16

> <PUBCHEM_ATOM_DEF_STEREO_COUNT>
0

> <PUBCHEM_ATOM_UDEF_STEREO_COUNT>
0

> <PUBCHEM_BOND_DEF_STEREO_COUNT>
0

> <PUBCHEM_BOND_UDEF_STEREO_COUNT>
0

> <PUBCHEM_ISOTOPIC_ATOM_COUNT>
0

> <PUBCHEM_COMPONENT_COUNT>
1

> <PUBCHEM_CACTVS_TAUTO_COUNT>
-1

> <PUBCHEM_COORDINATE_TYPE>
1
5
255

> <PUBCHEM_BONDANNOTATIONS>
5  7  8
5  9  8
6  10  8
6  8  8
7  10  8
8  9  8

$$$$
