238952
  -OEChem-05122609032D

 28 29  0     0  0  0  0  0  0999 V2000
    8.1301   -1.4827    0.0000 O   0  0  0  0  0  0  0  0  0  0  0  0
    4.6000   -1.5068    0.0000 O   0  0  0  0  0  0  0  0  0  0  0  0
    9.8622   -1.4827    0.0000 O   0  0  0  0  0  0  0  0  0  0  0  0
    7.2641    0.0173    0.0000 C   0  0  0  0  0  0  0  0  0  0  0  0
    7.2641   -0.9827    0.0000 C   0  0  0  0  0  0  0  0  0  0  0  0
    8.1301    0.5173    0.0000 C   0  0  0  0  0  0  0  0  0  0  0  0
    6.3701    0.5520    0.0000 C   0  0  0  0  0  0  0  0  0  0  0  0
    6.3701   -1.5173    0.0000 C   0  0  0  0  0  0  0  0  0  0  0  0
    5.4641   -1.0035    0.0000 C   0  0  0  0  0  0  0  0  0  0  0  0
    5.4641    0.0381    0.0000 C   0  0  0  0  0  0  0  0  0  0  0  0
    8.9961    0.0173    0.0000 C   0  0  0  0  0  0  0  0  0  0  0  0
    8.1301    1.5173    0.0000 C   0  0  0  0  0  0  0  0  0  0  0  0
    8.9961   -0.9827    0.0000 C   0  0  0  0  0  0  0  0  0  0  0  0
    3.7320   -1.0102    0.0000 C   0  0  0  0  0  0  0  0  0  0  0  0
    2.8680   -1.5135    0.0000 C   0  0  0  0  0  0  0  0  0  0  0  0
    2.0000   -1.0168    0.0000 C   0  0  0  0  0  0  0  0  0  0  0  0
    6.3773    1.1720    0.0000 H   0  0  0  0  0  0  0  0  0  0  0  0
    6.3773   -2.1373    0.0000 H   0  0  0  0  0  0  0  0  0  0  0  0
    4.9283    0.3502    0.0000 H   0  0  0  0  0  0  0  0  0  0  0  0
    9.5331    0.3273    0.0000 H   0  0  0  0  0  0  0  0  0  0  0  0
    8.7501    1.5173    0.0000 H   0  0  0  0  0  0  0  0  0  0  0  0
    8.1301    2.1373    0.0000 H   0  0  0  0  0  0  0  0  0  0  0  0
    7.5101    1.5173    0.0000 H   0  0  0  0  0  0  0  0  0  0  0  0
    4.1287   -0.5337    0.0000 H   0  0  0  0  0  0  0  0  0  0  0  0
    3.3317   -0.5368    0.0000 H   0  0  0  0  0  0  0  0  0  0  0  0
    2.8703   -2.1335    0.0000 H   0  0  0  0  0  0  0  0  0  0  0  0
    1.9976   -0.3968    0.0000 H   0  0  0  0  0  0  0  0  0  0  0  0
    1.4643   -1.3289    0.0000 H   0  0  0  0  0  0  0  0  0  0  0  0
  1  5  1  0  0  0  0
  1 13  1  0  0  0  0
  2  9  1  0  0  0  0
  2 14  1  0  0  0  0
  3 13  2  0  0  0  0
  4  5  2  0  0  0  0
  4  6  1  0  0  0  0
  4  7  1  0  0  0  0
  5  8  1  0  0  0  0
  6 11  2  0  0  0  0
  6 12  1  0  0  0  0
  7 10  2  0  0  0  0
  7 17  1  0  0  0  0
  8  9  2  0  0  0  0
  8 18  1  0  0  0  0
  9 10  1  0  0  0  0
 10 19  1  0  0  0  0
 11 13  1  0  0  0  0
 11 20  1  0  0  0  0
 12 21  1  0  0  0  0
 12 22  1  0  0  0  0
 12 23  1  0  0  0  0
 14 15  1  0  0  0  0
 14 24  1  0  0  0  0
 14 25  1  0  0  0  0
 15 16  2  0  0  0  0
 15 26  1  0  0  0  0
 16 27  1  0  0  0  0
 16 28  1  0  0  0  0
M  END
> <PUBCHEM_COMPOUND_CID>
238952

> <PUBCHEM_COMPOUND_CANONICALIZED>
1

> <PUBCHEM_CACTVS_COMPLEXITY>
319

> <PUBCHEM_CACTVS_HBOND_ACCEPTOR>
3

> <PUBCHEM_CACTVS_HBOND_DONOR>
0

> <PUBCHEM_CACTVS_ROTATABLE_BOND>
3

> <PUBCHEM_CACTVS_SUBSKEYS>
AAADccBwMAAAAAAAAAAAAAAAAAAAAAAAAAAwQAAAAAAAAACBAAAAGgAAAAAADASgmAIyDoAABACIAiDSCAACCAAgIAAIiAAGCMgMJyKEMRqCOiClwBUIqQeA4KwOIAAACAAIAABAAAAQABAAAAAAAAAAAA==

> <PUBCHEM_IUPAC_OPENEYE_NAME>
7-allyloxy-4-methyl-chromen-2-one

> <PUBCHEM_IUPAC_CAS_NAME>
4-methyl-7-prop-2-enoxy-1-benzopyran-2-one

> <PUBCHEM_IUPAC_NAME_MARKUP>
4-methyl-7-prop-2-enoxychromen-2-one

> <PUBCHEM_IUPAC_NAME>
4-methyl-7-prop-2-enoxychromen-2-one

> <PUBCHEM_IUPAC_SYSTEMATIC_NAME>
4-methyl-7-prop-2-enoxy-chromen-2-one

> <PUBCHEM_IUPAC_TRADITIONAL_NAME>
7-allyloxy-4-methyl-coumarin

> <PUBCHEM_IUPAC_INCHI>
InChI=1S/C13H12O3/c1-3-6-15-10-4-5-11-9(2)7-13(14)16-12(11)8-10/h3-5,7-8H,1,6H2,2H3

> <PUBCHEM_IUPAC_INCHIKEY>
GLCBOQQZRISLFQ-UHFFFAOYSA-N

> <PUBCHEM_XLOGP3>
2.9

> <PUBCHEM_EXACT_MASS>
216.078644241

> <PUBCHEM_MOLECULAR_FORMULA>
C13H12O3

> <PUBCHEM_MOLECULAR_WEIGHT>
216.23

> <PUBCHEM_SMILES>
CC1=CC(=O)OC2=C1C=CC(=C2)OCC=C

> <PUBCHEM_CONNECTIVITY_SMILES>
CC1=CC(=O)OC2=C1C=CC(=C2)OCC=C

> <PUBCHEM_CACTVS_TPSA>
35.5

> <PUBCHEM_MONOISOTOPIC_WEIGHT>
216.078644241

> <PUBCHEM_TOTAL_CHARGE>
0

> <PUBCHEM_HEAVY_ATOM_COUNT>
16

> <PUBCHEM_ATOM_DEF_STEREO_COUNT>
0

> <PUBCHEM_ATOM_UDEF_STEREO_COUNT>
0

> <PUBCHEM_BOND_DEF_STEREO_COUNT>
0

> <PUBCHEM_BOND_UDEF_STEREO_COUNT>
0

> <PUBCHEM_ISOTOPIC_ATOM_COUNT>
0

> <PUBCHEM_COMPONENT_COUNT>
1

> <PUBCHEM_CACTVS_TAUTO_COUNT>
-1

> <PUBCHEM_COORDINATE_TYPE>
1
5
255

> <PUBCHEM_BONDANNOTATIONS>
1  13  8
1  5  8
11  13  8
4  5  8
4  6  8
4  7  8
5  8  8
6  11  8
7  10  8
8  9  8
9  10  8

$$$$
