23926
  -OEChem-05122608322D

  1  0  0     0  0  0  0  0  0999 V2000
    2.0000    0.0000    0.0000 La  0  0  0  0  0  0  0  0  0  0  0  0
M  END
> <PUBCHEM_COMPOUND_CID>
23926

> <PUBCHEM_COMPOUND_CANONICALIZED>
1

> <PUBCHEM_CACTVS_COMPLEXITY>
0

> <PUBCHEM_CACTVS_HBOND_ACCEPTOR>
0

> <PUBCHEM_CACTVS_HBOND_DONOR>
0

> <PUBCHEM_CACTVS_ROTATABLE_BOND>
0

> <PUBCHEM_CACTVS_SUBSKEYS>
AAADcQAAAAAAAAAAAAAAABAAAAAAAAAAAAAAAAAAAAAAAAAAAAAAAAAAAAAAAAAAAAAAAAAAAAAAAAAAAAAAAAAAAAAAAAAAAAAAAAAAAAAAAAAAAAAAAAAAAAAAAAAAAAAAAAAAAAAAAAAAAAAAAAAAAA==

> <PUBCHEM_IUPAC_OPENEYE_NAME>
lanthanum

> <PUBCHEM_IUPAC_CAS_NAME>
lanthanum

> <PUBCHEM_IUPAC_NAME_MARKUP>
lanthanum

> <PUBCHEM_IUPAC_NAME>
lanthanum

> <PUBCHEM_IUPAC_SYSTEMATIC_NAME>
lanthanum

> <PUBCHEM_IUPAC_TRADITIONAL_NAME>
lanthanum

> <PUBCHEM_IUPAC_INCHI>
InChI=1S/La

> <PUBCHEM_IUPAC_INCHIKEY>
FZLIPJUXYLNCLC-UHFFFAOYSA-N

> <PUBCHEM_EXACT_MASS>
138.906363

> <PUBCHEM_MOLECULAR_FORMULA>
La

> <PUBCHEM_MOLECULAR_WEIGHT>
138.9055

> <PUBCHEM_SMILES>
[La]

> <PUBCHEM_CONNECTIVITY_SMILES>
[La]

> <PUBCHEM_CACTVS_TPSA>
0

> <PUBCHEM_MONOISOTOPIC_WEIGHT>
138.906363

> <PUBCHEM_TOTAL_CHARGE>
0

> <PUBCHEM_HEAVY_ATOM_COUNT>
1

> <PUBCHEM_ATOM_DEF_STEREO_COUNT>
0

> <PUBCHEM_ATOM_UDEF_STEREO_COUNT>
0

> <PUBCHEM_BOND_DEF_STEREO_COUNT>
0

> <PUBCHEM_BOND_UDEF_STEREO_COUNT>
0

> <PUBCHEM_ISOTOPIC_ATOM_COUNT>
0

> <PUBCHEM_COMPONENT_COUNT>
1

> <PUBCHEM_CACTVS_TAUTO_COUNT>
-1

> <PUBCHEM_COORDINATE_TYPE>
1
5
255

$$$$
