23947
  -OEChem-05122608162D

  1  0  0     0  0  0  0  0  0999 V2000
    2.0000    0.0000    0.0000 Re  0  0  0  0  0  0  0  0  0  0  0  0
M  END
> <PUBCHEM_COMPOUND_CID>
23947

> <PUBCHEM_COMPOUND_CANONICALIZED>
1

> <PUBCHEM_CACTVS_COMPLEXITY>
0

> <PUBCHEM_CACTVS_HBOND_ACCEPTOR>
0

> <PUBCHEM_CACTVS_HBOND_DONOR>
0

> <PUBCHEM_CACTVS_ROTATABLE_BOND>
0

> <PUBCHEM_CACTVS_SUBSKEYS>
AAADcQAAAAAAAAAAAAAAIAAAAAAAAAAAAAAAAAAAAAAAAAAAAAAAAAAAAAAAAAAAAAAAAAAAAAAAAAAAAAAAAAAAAAAAAAAAAAAAAAAAAAAAAAAAAAAAAAAAAAAAAAAAAAAAAAAAAAAAAAAAAAAAAAAAAA==

> <PUBCHEM_IUPAC_OPENEYE_NAME>
rhenium

> <PUBCHEM_IUPAC_CAS_NAME>
rhenium

> <PUBCHEM_IUPAC_NAME_MARKUP>
rhenium

> <PUBCHEM_IUPAC_NAME>
rhenium

> <PUBCHEM_IUPAC_SYSTEMATIC_NAME>
rhenium

> <PUBCHEM_IUPAC_TRADITIONAL_NAME>
rhenium

> <PUBCHEM_IUPAC_INCHI>
InChI=1S/Re

> <PUBCHEM_IUPAC_INCHIKEY>
WUAPFZMCVAUBPE-UHFFFAOYSA-N

> <PUBCHEM_EXACT_MASS>
186.955752

> <PUBCHEM_MOLECULAR_FORMULA>
Re

> <PUBCHEM_MOLECULAR_WEIGHT>
186.207

> <PUBCHEM_SMILES>
[Re]

> <PUBCHEM_CONNECTIVITY_SMILES>
[Re]

> <PUBCHEM_CACTVS_TPSA>
0

> <PUBCHEM_MONOISOTOPIC_WEIGHT>
186.955752

> <PUBCHEM_TOTAL_CHARGE>
0

> <PUBCHEM_HEAVY_ATOM_COUNT>
1

> <PUBCHEM_ATOM_DEF_STEREO_COUNT>
0

> <PUBCHEM_ATOM_UDEF_STEREO_COUNT>
0

> <PUBCHEM_BOND_DEF_STEREO_COUNT>
0

> <PUBCHEM_BOND_UDEF_STEREO_COUNT>
0

> <PUBCHEM_ISOTOPIC_ATOM_COUNT>
0

> <PUBCHEM_COMPONENT_COUNT>
1

> <PUBCHEM_CACTVS_TAUTO_COUNT>
-1

> <PUBCHEM_COORDINATE_TYPE>
1
5
255

$$$$
