23963
  -OEChem-05122608132D

  1  0  0     0  0  0  0  0  0999 V2000
    2.0000    0.0000    0.0000 Ti  0  0  0  0  0  0  0  0  0  0  0  0
M  END
> <PUBCHEM_COMPOUND_CID>
23963

> <PUBCHEM_COMPOUND_CANONICALIZED>
1

> <PUBCHEM_CACTVS_COMPLEXITY>
0

> <PUBCHEM_CACTVS_HBOND_ACCEPTOR>
0

> <PUBCHEM_CACTVS_HBOND_DONOR>
0

> <PUBCHEM_CACTVS_ROTATABLE_BOND>
0

> <PUBCHEM_CACTVS_SUBSKEYS>
AAADcQAAAAAAAAIAAAAAAAAAAAAAAAAAAAAAAAAAAAAAAAAAAAAAAAAAAAAAAAAAAAAAAAAAAAAAAAAAAAAAAAAAAAAAAAAAAAAAAAAAAAAAAAAAAAAAAAAAAAAAAAAAAAAAAAAAAAAAAAAAAAAAAAAAAA==

> <PUBCHEM_IUPAC_OPENEYE_NAME>
titanium

> <PUBCHEM_IUPAC_CAS_NAME>
titanium

> <PUBCHEM_IUPAC_NAME_MARKUP>
titanium

> <PUBCHEM_IUPAC_NAME>
titanium

> <PUBCHEM_IUPAC_SYSTEMATIC_NAME>
titanium

> <PUBCHEM_IUPAC_TRADITIONAL_NAME>
titanium

> <PUBCHEM_IUPAC_INCHI>
InChI=1S/Ti

> <PUBCHEM_IUPAC_INCHIKEY>
RTAQQCXQSZGOHL-UHFFFAOYSA-N

> <PUBCHEM_EXACT_MASS>
47.9479407

> <PUBCHEM_MOLECULAR_FORMULA>
Ti

> <PUBCHEM_MOLECULAR_WEIGHT>
47.867

> <PUBCHEM_SMILES>
[Ti]

> <PUBCHEM_CONNECTIVITY_SMILES>
[Ti]

> <PUBCHEM_CACTVS_TPSA>
0

> <PUBCHEM_MONOISOTOPIC_WEIGHT>
47.9479407

> <PUBCHEM_TOTAL_CHARGE>
0

> <PUBCHEM_HEAVY_ATOM_COUNT>
1

> <PUBCHEM_ATOM_DEF_STEREO_COUNT>
0

> <PUBCHEM_ATOM_UDEF_STEREO_COUNT>
0

> <PUBCHEM_BOND_DEF_STEREO_COUNT>
0

> <PUBCHEM_BOND_UDEF_STEREO_COUNT>
0

> <PUBCHEM_ISOTOPIC_ATOM_COUNT>
0

> <PUBCHEM_COMPONENT_COUNT>
1

> <PUBCHEM_CACTVS_TAUTO_COUNT>
-1

> <PUBCHEM_COORDINATE_TYPE>
1
5
255

$$$$
