23974
  -OEChem-05122608472D

  1  0  0     0  0  0  0  0  0999 V2000
    2.0000    0.0000    0.0000 Ce  0  0  0  0  0  0  0  0  0  0  0  0
M  END
> <PUBCHEM_COMPOUND_CID>
23974

> <PUBCHEM_COMPOUND_CANONICALIZED>
1

> <PUBCHEM_CACTVS_COMPLEXITY>
0

> <PUBCHEM_CACTVS_HBOND_ACCEPTOR>
0

> <PUBCHEM_CACTVS_HBOND_DONOR>
0

> <PUBCHEM_CACTVS_ROTATABLE_BOND>
0

> <PUBCHEM_CACTVS_SUBSKEYS>
AAADcQAAAAAAAAAAAAAAAAgAAAAAAAAAAAAAAAAAAAAAAAAAAAAAAAAAAAAAAAAAAAAAAAAAAAAAAAAAAAAAAAAAAAAAAAAAAAAAAAAAAAAAAAAAAAAAAAAAAAAAAAAAAAAAAAAAAAAAAAAAAAAAAAAAAA==

> <PUBCHEM_IUPAC_OPENEYE_NAME>
cerium

> <PUBCHEM_IUPAC_CAS_NAME>
cerium

> <PUBCHEM_IUPAC_NAME_MARKUP>
cerium

> <PUBCHEM_IUPAC_NAME>
cerium

> <PUBCHEM_IUPAC_SYSTEMATIC_NAME>
cerium

> <PUBCHEM_IUPAC_TRADITIONAL_NAME>
cerium

> <PUBCHEM_IUPAC_INCHI>
InChI=1S/Ce

> <PUBCHEM_IUPAC_INCHIKEY>
GWXLDORMOJMVQZ-UHFFFAOYSA-N

> <PUBCHEM_EXACT_MASS>
139.90545

> <PUBCHEM_MOLECULAR_FORMULA>
Ce

> <PUBCHEM_MOLECULAR_WEIGHT>
140.116

> <PUBCHEM_SMILES>
[Ce]

> <PUBCHEM_CONNECTIVITY_SMILES>
[Ce]

> <PUBCHEM_CACTVS_TPSA>
0

> <PUBCHEM_MONOISOTOPIC_WEIGHT>
139.90545

> <PUBCHEM_TOTAL_CHARGE>
0

> <PUBCHEM_HEAVY_ATOM_COUNT>
1

> <PUBCHEM_ATOM_DEF_STEREO_COUNT>
0

> <PUBCHEM_ATOM_UDEF_STEREO_COUNT>
0

> <PUBCHEM_BOND_DEF_STEREO_COUNT>
0

> <PUBCHEM_BOND_UDEF_STEREO_COUNT>
0

> <PUBCHEM_ISOTOPIC_ATOM_COUNT>
0

> <PUBCHEM_COMPONENT_COUNT>
1

> <PUBCHEM_CACTVS_TAUTO_COUNT>
-1

> <PUBCHEM_COORDINATE_TYPE>
1
5
255

$$$$
