23981
  -OEChem-05122608372D

  1  0  0     0  0  0  0  0  0999 V2000
    2.0000    0.0000    0.0000 Eu  0  0  0  0  0  0  0  0  0  0  0  0
M  END
> <PUBCHEM_COMPOUND_CID>
23981

> <PUBCHEM_COMPOUND_CANONICALIZED>
1

> <PUBCHEM_CACTVS_COMPLEXITY>
0

> <PUBCHEM_CACTVS_HBOND_ACCEPTOR>
0

> <PUBCHEM_CACTVS_HBOND_DONOR>
0

> <PUBCHEM_CACTVS_ROTATABLE_BOND>
0

> <PUBCHEM_CACTVS_SUBSKEYS>
AAADcQAAAAAAAAAAAAAAAABAAAAAAAAAAAAAAAAAAAAAAAAAAAAAAAAAAAAAAAAAAAAAAAAAAAAAAAAAAAAAAAAAAAAAAAAAAAAAAAAAAAAAAAAAAAAAAAAAAAAAAAAAAAAAAAAAAAAAAAAAAAAAAAAAAA==

> <PUBCHEM_IUPAC_OPENEYE_NAME>
europium

> <PUBCHEM_IUPAC_CAS_NAME>
europium

> <PUBCHEM_IUPAC_NAME_MARKUP>
europium

> <PUBCHEM_IUPAC_NAME>
europium

> <PUBCHEM_IUPAC_SYSTEMATIC_NAME>
europium

> <PUBCHEM_IUPAC_TRADITIONAL_NAME>
europium

> <PUBCHEM_IUPAC_INCHI>
InChI=1S/Eu

> <PUBCHEM_IUPAC_INCHIKEY>
OGPBJKLSAFTDLK-UHFFFAOYSA-N

> <PUBCHEM_EXACT_MASS>
152.92124

> <PUBCHEM_MOLECULAR_FORMULA>
Eu

> <PUBCHEM_MOLECULAR_WEIGHT>
151.964

> <PUBCHEM_SMILES>
[Eu]

> <PUBCHEM_CONNECTIVITY_SMILES>
[Eu]

> <PUBCHEM_CACTVS_TPSA>
0

> <PUBCHEM_MONOISOTOPIC_WEIGHT>
152.92124

> <PUBCHEM_TOTAL_CHARGE>
0

> <PUBCHEM_HEAVY_ATOM_COUNT>
1

> <PUBCHEM_ATOM_DEF_STEREO_COUNT>
0

> <PUBCHEM_ATOM_UDEF_STEREO_COUNT>
0

> <PUBCHEM_BOND_DEF_STEREO_COUNT>
0

> <PUBCHEM_BOND_UDEF_STEREO_COUNT>
0

> <PUBCHEM_ISOTOPIC_ATOM_COUNT>
0

> <PUBCHEM_COMPONENT_COUNT>
1

> <PUBCHEM_CACTVS_TAUTO_COUNT>
-1

> <PUBCHEM_COORDINATE_TYPE>
1
5
255

$$$$
