24231
  -OEChem-05122610032D

 27 25  0     1  0  0  0  0  0999 V2000
    2.8850    0.0000    0.0000 Ni  0  0  0  0  0  0  0  0  0  0  0  0
    5.7331    4.5369    0.0000 O   0  0  0  0  0  0  0  0  0  0  0  0
    4.8671    6.0369    0.0000 O   0  0  0  0  0  0  0  0  0  0  0  0
    4.0010    4.5369    0.0000 C   0  0  3  0  0  0  0  0  0  0  0  0
    3.1350    5.0369    0.0000 C   0  0  0  0  0  0  0  0  0  0  0  0
    2.2690    4.5369    0.0000 C   0  0  0  0  0  0  0  0  0  0  0  0
    4.0010    3.5369    0.0000 C   0  0  0  0  0  0  0  0  0  0  0  0
    1.4030    5.0369    0.0000 C   0  0  0  0  0  0  0  0  0  0  0  0
    4.8671    5.0369    0.0000 C   0  0  0  0  0  0  0  0  0  0  0  0
    3.1350    3.0369    0.0000 C   0  0  0  0  0  0  0  0  0  0  0  0
    0.5369    4.5369    0.0000 C   0  0  0  0  0  0  0  0  0  0  0  0
    4.5380    4.2269    0.0000 H   0  0  0  0  0  0  0  0  0  0  0  0
    3.5335    5.5119    0.0000 H   0  0  0  0  0  0  0  0  0  0  0  0
    2.7365    5.5119    0.0000 H   0  0  0  0  0  0  0  0  0  0  0  0
    1.8705    4.0620    0.0000 H   0  0  0  0  0  0  0  0  0  0  0  0
    2.6675    4.0620    0.0000 H   0  0  0  0  0  0  0  0  0  0  0  0
    4.2131    2.9543    0.0000 H   0  0  0  0  0  0  0  0  0  0  0  0
    4.6116    3.6446    0.0000 H   0  0  0  0  0  0  0  0  0  0  0  0
    1.8015    5.5119    0.0000 H   0  0  0  0  0  0  0  0  0  0  0  0
    1.0044    5.5119    0.0000 H   0  0  0  0  0  0  0  0  0  0  0  0
    2.8250    3.5739    0.0000 H   0  0  0  0  0  0  0  0  0  0  0  0
    2.5981    2.7269    0.0000 H   0  0  0  0  0  0  0  0  0  0  0  0
    3.4450    2.5000    0.0000 H   0  0  0  0  0  0  0  0  0  0  0  0
    0.2269    5.0739    0.0000 H   0  0  0  0  0  0  0  0  0  0  0  0
    0.0000    4.2269    0.0000 H   0  0  0  0  0  0  0  0  0  0  0  0
    0.8469    4.0000    0.0000 H   0  0  0  0  0  0  0  0  0  0  0  0
    6.2700    4.8469    0.0000 H   0  0  0  0  0  0  0  0  0  0  0  0
  2  9  1  0  0  0  0
  2 27  1  0  0  0  0
  3  9  2  0  0  0  0
  4  5  1  0  0  0  0
  4  7  1  0  0  0  0
  4  9  1  0  0  0  0
  4 12  1  0  0  0  0
  5  6  1  0  0  0  0
  5 13  1  0  0  0  0
  5 14  1  0  0  0  0
  6  8  1  0  0  0  0
  6 15  1  0  0  0  0
  6 16  1  0  0  0  0
  7 10  1  0  0  0  0
  7 17  1  0  0  0  0
  7 18  1  0  0  0  0
  8 11  1  0  0  0  0
  8 19  1  0  0  0  0
  8 20  1  0  0  0  0
 10 21  1  0  0  0  0
 10 22  1  0  0  0  0
 10 23  1  0  0  0  0
 11 24  1  0  0  0  0
 11 25  1  0  0  0  0
 11 26  1  0  0  0  0
M  END
> <PUBCHEM_COMPOUND_CID>
24231

> <PUBCHEM_COMPOUND_CANONICALIZED>
1

> <PUBCHEM_CACTVS_COMPLEXITY>
99.4

> <PUBCHEM_CACTVS_HBOND_ACCEPTOR>
2

> <PUBCHEM_CACTVS_HBOND_DONOR>
1

> <PUBCHEM_CACTVS_ROTATABLE_BOND>
5

> <PUBCHEM_CACTVS_SUBSKEYS>
AAADceBwMAAAAAAIAAAAAAAAAAAAAAAAAAAAAAAAAAAAAAAAAAAAGgAACAAADQCAgAACCAAAAgAIAACQCAAAAAAAAAAAAAEAAAAAABIAAAAAQAAEAAAAAAGIyAAOAAAAAAAAAAAAAAAAAAAAAAAAAAAAAA==

> <PUBCHEM_IUPAC_OPENEYE_NAME>
2-ethylhexanoic acid;nickel

> <PUBCHEM_IUPAC_CAS_NAME>
2-ethylhexanoic acid;nickel

> <PUBCHEM_IUPAC_NAME_MARKUP>
2-ethylhexanoic acid;nickel

> <PUBCHEM_IUPAC_NAME>
2-ethylhexanoic acid;nickel

> <PUBCHEM_IUPAC_SYSTEMATIC_NAME>
2-ethylhexanoic acid;nickel

> <PUBCHEM_IUPAC_TRADITIONAL_NAME>
2-ethylhexanoic acid;nickel

> <PUBCHEM_IUPAC_INCHI>
InChI=1S/C8H16O2.Ni/c1-3-5-6-7(4-2)8(9)10;/h7H,3-6H2,1-2H3,(H,9,10);

> <PUBCHEM_IUPAC_INCHIKEY>
XRBQEYWBWZFUIJ-UHFFFAOYSA-N

> <PUBCHEM_EXACT_MASS>
202.050371

> <PUBCHEM_MOLECULAR_FORMULA>
C8H16NiO2

> <PUBCHEM_MOLECULAR_WEIGHT>
202.90

> <PUBCHEM_SMILES>
CCCCC(CC)C(=O)O.[Ni]

> <PUBCHEM_CONNECTIVITY_SMILES>
CCCCC(CC)C(=O)O.[Ni]

> <PUBCHEM_CACTVS_TPSA>
37.3

> <PUBCHEM_MONOISOTOPIC_WEIGHT>
202.050371

> <PUBCHEM_TOTAL_CHARGE>
0

> <PUBCHEM_HEAVY_ATOM_COUNT>
11

> <PUBCHEM_ATOM_DEF_STEREO_COUNT>
0

> <PUBCHEM_ATOM_UDEF_STEREO_COUNT>
1

> <PUBCHEM_BOND_DEF_STEREO_COUNT>
0

> <PUBCHEM_BOND_UDEF_STEREO_COUNT>
0

> <PUBCHEM_ISOTOPIC_ATOM_COUNT>
0

> <PUBCHEM_COMPONENT_COUNT>
2

> <PUBCHEM_CACTVS_TAUTO_COUNT>
-1

> <PUBCHEM_COORDINATE_TYPE>
1
5
255

> <PUBCHEM_BONDANNOTATIONS>
4  7  3

$$$$
