24775
  -OEChem-05122609432D

 51 51  0     0  0  0  0  0  0999 V2000
    5.1350   -0.7780    0.0000 O   0  0  0  0  0  0  0  0  0  0  0  0
    3.4030   -2.7780    0.0000 O   0  0  0  0  0  0  0  0  0  0  0  0
    2.5369   -5.2780    0.0000 O   0  0  0  0  0  0  0  0  0  0  0  0
    5.1350    3.2220    0.0000 C   0  0  0  0  0  0  0  0  0  0  0  0
    6.0010    4.7220    0.0000 C   0  0  0  0  0  0  0  0  0  0  0  0
    5.1350    4.2220    0.0000 C   0  0  0  0  0  0  0  0  0  0  0  0
    5.1350    2.2220    0.0000 C   0  0  0  0  0  0  0  0  0  0  0  0
    6.1350    3.2220    0.0000 C   0  0  0  0  0  0  0  0  0  0  0  0
    4.1350    3.2220    0.0000 C   0  0  0  0  0  0  0  0  0  0  0  0
    6.8671    5.2220    0.0000 C   0  0  0  0  0  0  0  0  0  0  0  0
    5.5010    5.5880    0.0000 C   0  0  0  0  0  0  0  0  0  0  0  0
    6.5010    3.8560    0.0000 C   0  0  0  0  0  0  0  0  0  0  0  0
    6.0010    1.7220    0.0000 C   0  0  0  0  0  0  0  0  0  0  0  0
    4.2690    1.7220    0.0000 C   0  0  0  0  0  0  0  0  0  0  0  0
    6.0010    0.7220    0.0000 C   0  0  0  0  0  0  0  0  0  0  0  0
    4.2690    0.7220    0.0000 C   0  0  0  0  0  0  0  0  0  0  0  0
    5.1350    0.2220    0.0000 C   0  0  0  0  0  0  0  0  0  0  0  0
    4.2690   -1.2780    0.0000 C   0  0  0  0  0  0  0  0  0  0  0  0
    4.2690   -2.2780    0.0000 C   0  0  0  0  0  0  0  0  0  0  0  0
    3.4030   -3.7780    0.0000 C   0  0  0  0  0  0  0  0  0  0  0  0
    2.5369   -4.2780    0.0000 C   0  0  0  0  0  0  0  0  0  0  0  0
    4.9230    4.8046    0.0000 H   0  0  0  0  0  0  0  0  0  0  0  0
    4.5244    4.1143    0.0000 H   0  0  0  0  0  0  0  0  0  0  0  0
    6.1350    2.6020    0.0000 H   0  0  0  0  0  0  0  0  0  0  0  0
    6.7550    3.2220    0.0000 H   0  0  0  0  0  0  0  0  0  0  0  0
    6.1350    3.8420    0.0000 H   0  0  0  0  0  0  0  0  0  0  0  0
    4.1350    3.8420    0.0000 H   0  0  0  0  0  0  0  0  0  0  0  0
    3.5150    3.2220    0.0000 H   0  0  0  0  0  0  0  0  0  0  0  0
    4.1350    2.6020    0.0000 H   0  0  0  0  0  0  0  0  0  0  0  0
    7.1771    4.6851    0.0000 H   0  0  0  0  0  0  0  0  0  0  0  0
    7.4040    5.5320    0.0000 H   0  0  0  0  0  0  0  0  0  0  0  0
    6.5571    5.7589    0.0000 H   0  0  0  0  0  0  0  0  0  0  0  0
    6.0380    5.8980    0.0000 H   0  0  0  0  0  0  0  0  0  0  0  0
    5.1910    6.1250    0.0000 H   0  0  0  0  0  0  0  0  0  0  0  0
    4.9641    5.2780    0.0000 H   0  0  0  0  0  0  0  0  0  0  0  0
    5.9641    3.5460    0.0000 H   0  0  0  0  0  0  0  0  0  0  0  0
    6.8110    3.3190    0.0000 H   0  0  0  0  0  0  0  0  0  0  0  0
    7.0380    4.1660    0.0000 H   0  0  0  0  0  0  0  0  0  0  0  0
    6.5380    2.0320    0.0000 H   0  0  0  0  0  0  0  0  0  0  0  0
    3.7321    2.0320    0.0000 H   0  0  0  0  0  0  0  0  0  0  0  0
    6.5380    0.4120    0.0000 H   0  0  0  0  0  0  0  0  0  0  0  0
    3.7321    0.4120    0.0000 H   0  0  0  0  0  0  0  0  0  0  0  0
    4.0569   -0.6954    0.0000 H   0  0  0  0  0  0  0  0  0  0  0  0
    3.6584   -1.3857    0.0000 H   0  0  0  0  0  0  0  0  0  0  0  0
    4.4810   -2.8606    0.0000 H   0  0  0  0  0  0  0  0  0  0  0  0
    4.8796   -2.1704    0.0000 H   0  0  0  0  0  0  0  0  0  0  0  0
    3.6150   -4.3606    0.0000 H   0  0  0  0  0  0  0  0  0  0  0  0
    4.0135   -3.6704    0.0000 H   0  0  0  0  0  0  0  0  0  0  0  0
    2.3249   -3.6954    0.0000 H   0  0  0  0  0  0  0  0  0  0  0  0
    1.9264   -4.3857    0.0000 H   0  0  0  0  0  0  0  0  0  0  0  0
    2.0000   -5.5880    0.0000 H   0  0  0  0  0  0  0  0  0  0  0  0
  1 17  1  0  0  0  0
  1 18  1  0  0  0  0
  2 19  1  0  0  0  0
  2 20  1  0  0  0  0
  3 21  1  0  0  0  0
  3 51  1  0  0  0  0
  4  6  1  0  0  0  0
  4  7  1  0  0  0  0
  4  8  1  0  0  0  0
  4  9  1  0  0  0  0
  5  6  1  0  0  0  0
  5 10  1  0  0  0  0
  5 11  1  0  0  0  0
  5 12  1  0  0  0  0
  6 22  1  0  0  0  0
  6 23  1  0  0  0  0
  7 13  2  0  0  0  0
  7 14  1  0  0  0  0
  8 24  1  0  0  0  0
  8 25  1  0  0  0  0
  8 26  1  0  0  0  0
  9 27  1  0  0  0  0
  9 28  1  0  0  0  0
  9 29  1  0  0  0  0
 10 30  1  0  0  0  0
 10 31  1  0  0  0  0
 10 32  1  0  0  0  0
 11 33  1  0  0  0  0
 11 34  1  0  0  0  0
 11 35  1  0  0  0  0
 12 36  1  0  0  0  0
 12 37  1  0  0  0  0
 12 38  1  0  0  0  0
 13 15  1  0  0  0  0
 13 39  1  0  0  0  0
 14 16  2  0  0  0  0
 14 40  1  0  0  0  0
 15 17  2  0  0  0  0
 15 41  1  0  0  0  0
 16 17  1  0  0  0  0
 16 42  1  0  0  0  0
 18 19  1  0  0  0  0
 18 43  1  0  0  0  0
 18 44  1  0  0  0  0
 19 45  1  0  0  0  0
 19 46  1  0  0  0  0
 20 21  1  0  0  0  0
 20 47  1  0  0  0  0
 20 48  1  0  0  0  0
 21 49  1  0  0  0  0
 21 50  1  0  0  0  0
M  END
> <PUBCHEM_COMPOUND_CID>
24775

> <PUBCHEM_COMPOUND_CANONICALIZED>
1

> <PUBCHEM_CACTVS_COMPLEXITY>
273

> <PUBCHEM_CACTVS_HBOND_ACCEPTOR>
3

> <PUBCHEM_CACTVS_HBOND_DONOR>
1

> <PUBCHEM_CACTVS_ROTATABLE_BOND>
9

> <PUBCHEM_CACTVS_SUBSKEYS>
AAADceB4MAAAAAAAAAAAAAAAAAAAAAAAAAAwAAAAAAAAAAABAAAAGgAACAAADgSgmAIyBoAABgCAAiBCAAACCAAgIAAIiAAGCIgNNiKEMRqCOCCkwBELqAeAwPAPoAAAAAAAAABAAAAAAAAAAAAAAAAAAA==

> <PUBCHEM_IUPAC_OPENEYE_NAME>
2-[2-[4-(1,1,3,3-tetramethylbutyl)phenoxy]ethoxy]ethanol

> <PUBCHEM_IUPAC_CAS_NAME>
2-[2-[4-(2,4,4-trimethylpentan-2-yl)phenoxy]ethoxy]ethanol

> <PUBCHEM_IUPAC_NAME_MARKUP>
2-[2-[4-(2,4,4-trimethylpentan-2-yl)phenoxy]ethoxy]ethanol

> <PUBCHEM_IUPAC_NAME>
2-[2-[4-(2,4,4-trimethylpentan-2-yl)phenoxy]ethoxy]ethanol

> <PUBCHEM_IUPAC_SYSTEMATIC_NAME>
2-[2-[4-(2,4,4-trimethylpentan-2-yl)phenoxy]ethoxy]ethanol

> <PUBCHEM_IUPAC_TRADITIONAL_NAME>
2-[2-[4-(1,1,3,3-tetramethylbutyl)phenoxy]ethoxy]ethanol

> <PUBCHEM_IUPAC_INCHI>
InChI=1S/C18H30O3/c1-17(2,3)14-18(4,5)15-6-8-16(9-7-15)21-13-12-20-11-10-19/h6-9,19H,10-14H2,1-5H3

> <PUBCHEM_IUPAC_INCHIKEY>
LBCZOTMMGHGTPH-UHFFFAOYSA-N

> <PUBCHEM_XLOGP3_AA>
4.5

> <PUBCHEM_EXACT_MASS>
294.21949481

> <PUBCHEM_MOLECULAR_FORMULA>
C18H30O3

> <PUBCHEM_MOLECULAR_WEIGHT>
294.4

> <PUBCHEM_SMILES>
CC(C)(C)CC(C)(C)C1=CC=C(C=C1)OCCOCCO

> <PUBCHEM_CONNECTIVITY_SMILES>
CC(C)(C)CC(C)(C)C1=CC=C(C=C1)OCCOCCO

> <PUBCHEM_CACTVS_TPSA>
38.7

> <PUBCHEM_MONOISOTOPIC_WEIGHT>
294.21949481

> <PUBCHEM_TOTAL_CHARGE>
0

> <PUBCHEM_HEAVY_ATOM_COUNT>
21

> <PUBCHEM_ATOM_DEF_STEREO_COUNT>
0

> <PUBCHEM_ATOM_UDEF_STEREO_COUNT>
0

> <PUBCHEM_BOND_DEF_STEREO_COUNT>
0

> <PUBCHEM_BOND_UDEF_STEREO_COUNT>
0

> <PUBCHEM_ISOTOPIC_ATOM_COUNT>
0

> <PUBCHEM_COMPONENT_COUNT>
1

> <PUBCHEM_CACTVS_TAUTO_COUNT>
-1

> <PUBCHEM_COORDINATE_TYPE>
1
5
255

> <PUBCHEM_BONDANNOTATIONS>
13  15  8
14  16  8
15  17  8
16  17  8
7  13  8
7  14  8

$$$$
