25059
  -OEChem-05122608412D

 10  9  0     0  0  0  0  0  0999 V2000
    3.2321    0.6160    0.0000 Br  0  0  0  0  0  0  0  0  0  0  0  0
    4.2321   -1.1160    0.0000 Br  0  0  0  0  0  0  0  0  0  0  0  0
    4.5981    1.2500    0.0000 O   0  0  0  0  0  0  0  0  0  0  0  0
    5.4641   -0.2500    0.0000 N   0  0  0  0  0  0  0  0  0  0  0  0
    2.0000   -1.2500    0.0000 N   0  0  0  0  0  0  0  0  0  0  0  0
    3.7321   -0.2500    0.0000 C   0  0  0  0  0  0  0  0  0  0  0  0
    4.5981    0.2500    0.0000 C   0  0  0  0  0  0  0  0  0  0  0  0
    2.8660   -0.7500    0.0000 C   0  0  0  0  0  0  0  0  0  0  0  0
    6.0010    0.0600    0.0000 H   0  0  0  0  0  0  0  0  0  0  0  0
    5.4641   -0.8700    0.0000 H   0  0  0  0  0  0  0  0  0  0  0  0
  1  6  1  0  0  0  0
  2  6  1  0  0  0  0
  3  7  2  0  0  0  0
  4  7  1  0  0  0  0
  4  9  1  0  0  0  0
  4 10  1  0  0  0  0
  5  8  3  0  0  0  0
  6  7  1  0  0  0  0
  6  8  1  0  0  0  0
M  END
> <PUBCHEM_COMPOUND_CID>
25059

> <PUBCHEM_COMPOUND_CANONICALIZED>
1

> <PUBCHEM_CACTVS_COMPLEXITY>
156

> <PUBCHEM_CACTVS_HBOND_ACCEPTOR>
2

> <PUBCHEM_CACTVS_HBOND_DONOR>
1

> <PUBCHEM_CACTVS_ROTATABLE_BOND>
1

> <PUBCHEM_CACTVS_SUBSKEYS>
AAADcQBDIAAAGAAAAAAAAAAAAAAAAAAAAAAAAAAAAAAAAAAAAAAADgBQAAABiAABgAAAAABAAAAYBAEQEAAAAAAAAAAAAAEAAAAggAAAAAAAAAAAAAAAAAAAAAAAAAAAAAAAAAAAAAAAAAAAAAAAAAAAAA==

> <PUBCHEM_IUPAC_OPENEYE_NAME>
2,2-dibromo-2-cyano-acetamide

> <PUBCHEM_IUPAC_CAS_NAME>
2,2-dibromo-2-cyanoacetamide

> <PUBCHEM_IUPAC_NAME_MARKUP>
2,2-dibromo-2-cyanoacetamide

> <PUBCHEM_IUPAC_NAME>
2,2-dibromo-2-cyanoacetamide

> <PUBCHEM_IUPAC_SYSTEMATIC_NAME>
2,2-bis(bromanyl)-2-cyano-ethanamide

> <PUBCHEM_IUPAC_TRADITIONAL_NAME>
2,2-dibromo-2-cyano-acetamide

> <PUBCHEM_IUPAC_INCHI>
InChI=1S/C3H2Br2N2O/c4-3(5,1-6)2(7)8/h(H2,7,8)

> <PUBCHEM_IUPAC_INCHIKEY>
UUIVKBHZENILKB-UHFFFAOYSA-N

> <PUBCHEM_XLOGP3_AA>
0.6

> <PUBCHEM_EXACT_MASS>
241.85134

> <PUBCHEM_MOLECULAR_FORMULA>
C3H2Br2N2O

> <PUBCHEM_MOLECULAR_WEIGHT>
241.87

> <PUBCHEM_SMILES>
C(#N)C(C(=O)N)(Br)Br

> <PUBCHEM_CONNECTIVITY_SMILES>
C(#N)C(C(=O)N)(Br)Br

> <PUBCHEM_CACTVS_TPSA>
66.9

> <PUBCHEM_MONOISOTOPIC_WEIGHT>
239.85339

> <PUBCHEM_TOTAL_CHARGE>
0

> <PUBCHEM_HEAVY_ATOM_COUNT>
8

> <PUBCHEM_ATOM_DEF_STEREO_COUNT>
0

> <PUBCHEM_ATOM_UDEF_STEREO_COUNT>
0

> <PUBCHEM_BOND_DEF_STEREO_COUNT>
0

> <PUBCHEM_BOND_UDEF_STEREO_COUNT>
0

> <PUBCHEM_ISOTOPIC_ATOM_COUNT>
0

> <PUBCHEM_COMPONENT_COUNT>
1

> <PUBCHEM_CACTVS_TAUTO_COUNT>
-1

> <PUBCHEM_COORDINATE_TYPE>
1
5
255

$$$$
