252322
  -OEChem-05122608452D

 18 18  0     0  0  0  0  0  0999 V2000
    3.0000    0.1464    0.0000 C   0  0  0  0  0  0  0  0  0  0  0  0
    3.0000   -0.8536    0.0000 C   0  0  0  0  0  0  0  0  0  0  0  0
    2.0000    0.1464    0.0000 C   0  0  0  0  0  0  0  0  0  0  0  0
    2.0000   -0.8536    0.0000 C   0  0  0  0  0  0  0  0  0  0  0  0
    3.7071    0.8536    0.0000 C   0  0  0  0  0  0  0  0  0  0  0  0
    4.6730    0.5947    0.0000 C   0  0  0  0  0  0  0  0  0  0  0  0
    3.5728   -0.0908    0.0000 H   0  0  0  0  0  0  0  0  0  0  0  0
    3.0000   -1.4736    0.0000 H   0  0  0  0  0  0  0  0  0  0  0  0
    3.6200   -0.8536    0.0000 H   0  0  0  0  0  0  0  0  0  0  0  0
    2.0000    0.7664    0.0000 H   0  0  0  0  0  0  0  0  0  0  0  0
    1.3800    0.1464    0.0000 H   0  0  0  0  0  0  0  0  0  0  0  0
    1.3800   -0.8536    0.0000 H   0  0  0  0  0  0  0  0  0  0  0  0
    2.0000   -1.4736    0.0000 H   0  0  0  0  0  0  0  0  0  0  0  0
    3.9691    1.4155    0.0000 H   0  0  0  0  0  0  0  0  0  0  0  0
    3.1992    1.2092    0.0000 H   0  0  0  0  0  0  0  0  0  0  0  0
    4.5126   -0.0041    0.0000 H   0  0  0  0  0  0  0  0  0  0  0  0
    5.2719    0.4343    0.0000 H   0  0  0  0  0  0  0  0  0  0  0  0
    4.8335    1.1936    0.0000 H   0  0  0  0  0  0  0  0  0  0  0  0
  1  2  1  0  0  0  0
  1  3  1  0  0  0  0
  1  5  1  0  0  0  0
  1  7  1  0  0  0  0
  2  4  1  0  0  0  0
  2  8  1  0  0  0  0
  2  9  1  0  0  0  0
  3  4  1  0  0  0  0
  3 10  1  0  0  0  0
  3 11  1  0  0  0  0
  4 12  1  0  0  0  0
  4 13  1  0  0  0  0
  5  6  1  0  0  0  0
  5 14  1  0  0  0  0
  5 15  1  0  0  0  0
  6 16  1  0  0  0  0
  6 17  1  0  0  0  0
  6 18  1  0  0  0  0
M  END
> <PUBCHEM_COMPOUND_CID>
252322

> <PUBCHEM_COMPOUND_CANONICALIZED>
1

> <PUBCHEM_CACTVS_COMPLEXITY>
35.3

> <PUBCHEM_CACTVS_HBOND_ACCEPTOR>
0

> <PUBCHEM_CACTVS_HBOND_DONOR>
0

> <PUBCHEM_CACTVS_ROTATABLE_BOND>
1

> <PUBCHEM_CACTVS_SUBSKEYS>
AAADccBgAAAAAAAAAAAAAAAAAABgAAAAAAAAAAAAAAAAAAAAAAAAGAAAAAAADQCAAAACAAAAAAAAAAAAAAAAAAAAAAAAAAAAAAAAAAIAAAAAAAAAAAAAAAEAAAAKAAAAAAAAAAAAAAAAAAAAAAAAAAAAAA==

> <PUBCHEM_IUPAC_OPENEYE_NAME>
ethylcyclobutane

> <PUBCHEM_IUPAC_CAS_NAME>
ethylcyclobutane

> <PUBCHEM_IUPAC_NAME_MARKUP>
ethylcyclobutane

> <PUBCHEM_IUPAC_NAME>
ethylcyclobutane

> <PUBCHEM_IUPAC_SYSTEMATIC_NAME>
ethylcyclobutane

> <PUBCHEM_IUPAC_TRADITIONAL_NAME>
ethylcyclobutane

> <PUBCHEM_IUPAC_INCHI>
InChI=1S/C6H12/c1-2-6-4-3-5-6/h6H,2-5H2,1H3

> <PUBCHEM_IUPAC_INCHIKEY>
NEZRFXZYPAIZAD-UHFFFAOYSA-N

> <PUBCHEM_XLOGP3_AA>
3

> <PUBCHEM_EXACT_MASS>
84.093900383

> <PUBCHEM_MOLECULAR_FORMULA>
C6H12

> <PUBCHEM_MOLECULAR_WEIGHT>
84.16

> <PUBCHEM_SMILES>
CCC1CCC1

> <PUBCHEM_CONNECTIVITY_SMILES>
CCC1CCC1

> <PUBCHEM_CACTVS_TPSA>
0

> <PUBCHEM_MONOISOTOPIC_WEIGHT>
84.093900383

> <PUBCHEM_TOTAL_CHARGE>
0

> <PUBCHEM_HEAVY_ATOM_COUNT>
6

> <PUBCHEM_ATOM_DEF_STEREO_COUNT>
0

> <PUBCHEM_ATOM_UDEF_STEREO_COUNT>
0

> <PUBCHEM_BOND_DEF_STEREO_COUNT>
0

> <PUBCHEM_BOND_UDEF_STEREO_COUNT>
0

> <PUBCHEM_ISOTOPIC_ATOM_COUNT>
0

> <PUBCHEM_COMPONENT_COUNT>
1

> <PUBCHEM_CACTVS_TAUTO_COUNT>
-1

> <PUBCHEM_COORDINATE_TYPE>
1
5
255

$$$$
