25259372
  -OEChem-05122608402D

 45 46  0     0  0  0  0  0  0999 V2000
    8.3437    4.3285    0.0000 Cl  0  0  0  0  0  0  0  0  0  0  0  0
    1.4030    4.0369    0.0000 O   0  0  0  0  0  0  0  0  0  0  0  0
    3.1350    1.0369    0.0000 O   0  0  0  0  0  0  0  0  0  0  0  0
    4.8671    7.0369    0.0000 N   0  0  0  0  0  0  0  0  0  0  0  0
    1.4030    7.0369    0.0000 N   0  0  0  0  0  0  0  0  0  0  0  0
    4.8671    5.0369    0.0000 C   0  0  0  0  0  0  0  0  0  0  0  0
    5.7331    5.5369    0.0000 C   0  0  0  0  0  0  0  0  0  0  0  0
    4.0010    5.5369    0.0000 C   0  0  0  0  0  0  0  0  0  0  0  0
    5.7331    6.5369    0.0000 C   0  0  0  0  0  0  0  0  0  0  0  0
    4.0010    6.5369    0.0000 C   0  0  0  0  0  0  0  0  0  0  0  0
    3.1350    5.0369    0.0000 C   0  0  0  0  0  0  0  0  0  0  0  0
    3.1350    7.0369    0.0000 C   0  0  0  0  0  0  0  0  0  0  0  0
    3.1350    4.0369    0.0000 C   0  0  0  0  0  0  0  0  0  0  0  0
    2.2690    3.5369    0.0000 C   0  0  0  0  0  0  0  0  0  0  0  0
    4.0010    3.5369    0.0000 C   0  0  0  0  0  0  0  0  0  0  0  0
    3.1350    8.0369    0.0000 C   0  0  0  0  0  0  0  0  0  0  0  0
    2.2690    6.5369    0.0000 C   0  0  0  0  0  0  0  0  0  0  0  0
    2.2690    2.5369    0.0000 C   0  0  0  0  0  0  0  0  0  0  0  0
    4.0010    2.5369    0.0000 C   0  0  0  0  0  0  0  0  0  0  0  0
    3.1350    2.0369    0.0000 C   0  0  0  0  0  0  0  0  0  0  0  0
    2.2690    8.5369    0.0000 C   0  0  0  0  0  0  0  0  0  0  0  0
    1.4030    8.0369    0.0000 C   0  0  0  0  0  0  0  0  0  0  0  0
    0.5369    3.5369    0.0000 C   0  0  0  0  0  0  0  0  0  0  0  0
    4.0010    0.5369    0.0000 C   0  0  0  0  0  0  0  0  0  0  0  0
    4.4685    4.5620    0.0000 H   0  0  0  0  0  0  0  0  0  0  0  0
    5.2656    4.5620    0.0000 H   0  0  0  0  0  0  0  0  0  0  0  0
    5.9451    4.9543    0.0000 H   0  0  0  0  0  0  0  0  0  0  0  0
    6.3437    5.6446    0.0000 H   0  0  0  0  0  0  0  0  0  0  0  0
    6.3437    6.4293    0.0000 H   0  0  0  0  0  0  0  0  0  0  0  0
    5.9451    7.1195    0.0000 H   0  0  0  0  0  0  0  0  0  0  0  0
    2.5981    5.3469    0.0000 H   0  0  0  0  0  0  0  0  0  0  0  0
    4.5380    3.8469    0.0000 H   0  0  0  0  0  0  0  0  0  0  0  0
    3.6720    8.3469    0.0000 H   0  0  0  0  0  0  0  0  0  0  0  0
    2.2690    5.9169    0.0000 H   0  0  0  0  0  0  0  0  0  0  0  0
    1.7320    2.2269    0.0000 H   0  0  0  0  0  0  0  0  0  0  0  0
    4.5380    2.2269    0.0000 H   0  0  0  0  0  0  0  0  0  0  0  0
    2.2690    9.1569    0.0000 H   0  0  0  0  0  0  0  0  0  0  0  0
    0.8660    8.3469    0.0000 H   0  0  0  0  0  0  0  0  0  0  0  0
    0.2269    4.0739    0.0000 H   0  0  0  0  0  0  0  0  0  0  0  0
    0.0000    3.2269    0.0000 H   0  0  0  0  0  0  0  0  0  0  0  0
    0.8469    3.0000    0.0000 H   0  0  0  0  0  0  0  0  0  0  0  0
    3.6910    0.0000    0.0000 H   0  0  0  0  0  0  0  0  0  0  0  0
    4.5380    0.2269    0.0000 H   0  0  0  0  0  0  0  0  0  0  0  0
    4.3110    1.0739    0.0000 H   0  0  0  0  0  0  0  0  0  0  0  0
    9.3437    4.3285    0.0000 H   0  0  0  0  0  0  0  0  0  0  0  0
  1 45  1  0  0  0  0
  2 14  1  0  0  0  0
  2 23  1  0  0  0  0
  3 20  1  0  0  0  0
  3 24  1  0  0  0  0
  4  9  1  0  0  0  0
  4 10  2  0  0  0  0
  5 17  1  0  0  0  0
  5 22  2  0  0  0  0
  6  7  1  0  0  0  0
  6  8  1  0  0  0  0
  6 25  1  0  0  0  0
  6 26  1  0  0  0  0
  7  9  1  0  0  0  0
  7 27  1  0  0  0  0
  7 28  1  0  0  0  0
  8 10  1  0  0  0  0
  8 11  2  0  0  0  0
  9 29  1  0  0  0  0
  9 30  1  0  0  0  0
 10 12  1  0  0  0  0
 11 13  1  0  0  0  0
 11 31  1  0  0  0  0
 12 16  1  0  0  0  0
 12 17  2  0  0  0  0
 13 14  2  0  0  0  0
 13 15  1  0  0  0  0
 14 18  1  0  0  0  0
 15 19  2  0  0  0  0
 15 32  1  0  0  0  0
 16 21  2  0  0  0  0
 16 33  1  0  0  0  0
 17 34  1  0  0  0  0
 18 20  2  0  0  0  0
 18 35  1  0  0  0  0
 19 20  1  0  0  0  0
 19 36  1  0  0  0  0
 21 22  1  0  0  0  0
 21 37  1  0  0  0  0
 22 38  1  0  0  0  0
 23 39  1  0  0  0  0
 23 40  1  0  0  0  0
 23 41  1  0  0  0  0
 24 42  1  0  0  0  0
 24 43  1  0  0  0  0
 24 44  1  0  0  0  0
M  END
> <PUBCHEM_COMPOUND_CID>
25259372

> <PUBCHEM_COMPOUND_CANONICALIZED>
1

> <PUBCHEM_CACTVS_COMPLEXITY>
447

> <PUBCHEM_CACTVS_HBOND_ACCEPTOR>
4

> <PUBCHEM_CACTVS_HBOND_DONOR>
1

> <PUBCHEM_CACTVS_ROTATABLE_BOND>
4

> <PUBCHEM_CACTVS_SUBSKEYS>
AAADceB7MAAEAAAAAAAAAAAAAAAAAAAAAAA8QIAAAAAAAAABwAAAHgAAAAAADAzBmgY+hpIIFACgAzBnRACCiCAxIiAI2CA+bJgMJ+LEsZuEMChlwBXI6AeQ4OwOIAAACAAIAABAAAAQABAAAAAAAAAAAA==

> <PUBCHEM_IUPAC_OPENEYE_NAME>
3-[(5E)-5-[(2,4-dimethoxyphenyl)methylene]-3,4-dihydro-2H-pyridin-6-yl]pyridine;hydrochloride

> <PUBCHEM_IUPAC_CAS_NAME>
3-[(5E)-5-[(2,4-dimethoxyphenyl)methylidene]-3,4-dihydro-2H-pyridin-6-yl]pyridine;hydrochloride

> <PUBCHEM_IUPAC_NAME_MARKUP>
3-[(5<I>E</I>)-5-[(2,4-dimethoxyphenyl)methylidene]-3,4-dihydro-2<I>H</I>-pyridin-6-yl]pyridine;hydrochloride

> <PUBCHEM_IUPAC_NAME>
3-[(5E)-5-[(2,4-dimethoxyphenyl)methylidene]-3,4-dihydro-2H-pyridin-6-yl]pyridine;hydrochloride

> <PUBCHEM_IUPAC_SYSTEMATIC_NAME>
3-[(5E)-5-[(2,4-dimethoxyphenyl)methylidene]-3,4-dihydro-2H-pyridin-6-yl]pyridine;hydrochloride

> <PUBCHEM_IUPAC_TRADITIONAL_NAME>
3-[(5E)-5-(2,4-dimethoxybenzylidene)-3,4-dihydro-2H-pyridin-6-yl]pyridine;hydrochloride

> <PUBCHEM_IUPAC_INCHI>
InChI=1S/C19H20N2O2.ClH/c1-22-17-8-7-14(18(12-17)23-2)11-15-5-4-10-21-19(15)16-6-3-9-20-13-16;/h3,6-9,11-13H,4-5,10H2,1-2H3;1H/b15-11+;

> <PUBCHEM_IUPAC_INCHIKEY>
FNVCHJIVFOPCGS-KRWCAOSLSA-N

> <PUBCHEM_EXACT_MASS>
344.1291556

> <PUBCHEM_MOLECULAR_FORMULA>
C19H21ClN2O2

> <PUBCHEM_MOLECULAR_WEIGHT>
344.8

> <PUBCHEM_SMILES>
COC1=CC(=C(C=C1)/C=C/2\CCCN=C2C3=CN=CC=C3)OC.Cl

> <PUBCHEM_CONNECTIVITY_SMILES>
COC1=CC(=C(C=C1)C=C2CCCN=C2C3=CN=CC=C3)OC.Cl

> <PUBCHEM_CACTVS_TPSA>
43.7

> <PUBCHEM_MONOISOTOPIC_WEIGHT>
344.1291556

> <PUBCHEM_TOTAL_CHARGE>
0

> <PUBCHEM_HEAVY_ATOM_COUNT>
24

> <PUBCHEM_ATOM_DEF_STEREO_COUNT>
0

> <PUBCHEM_ATOM_UDEF_STEREO_COUNT>
0

> <PUBCHEM_BOND_DEF_STEREO_COUNT>
1

> <PUBCHEM_BOND_UDEF_STEREO_COUNT>
0

> <PUBCHEM_ISOTOPIC_ATOM_COUNT>
0

> <PUBCHEM_COMPONENT_COUNT>
2

> <PUBCHEM_CACTVS_TAUTO_COUNT>
-1

> <PUBCHEM_COORDINATE_TYPE>
1
5
255

> <PUBCHEM_BONDANNOTATIONS>
12  16  8
12  17  8
13  14  8
13  15  8
14  18  8
15  19  8
16  21  8
18  20  8
19  20  8
21  22  8
5  17  8
5  22  8

$$$$
