26177
  -OEChem-01092608242D

 35 34  0     0  0  0  0  0  0999 V2000
    2.0000   -0.9821    0.0000 Cl  0  0  0  0  0  0  0  0  0  0  0  0
    2.8660    0.5179    0.0000 Cl  0  0  0  0  0  0  0  0  0  0  0  0
    8.9282   -0.9821    0.0000 Cl  0  0  0  0  0  0  0  0  0  0  0  0
    8.0622   -2.4821    0.0000 Cl  0  0  0  0  0  0  0  0  0  0  0  0
    5.4641    2.4821    0.0000 Cl  0  0  0  0  0  0  0  0  0  0  0  0
    6.9641    1.6160    0.0000 Cl  0  0  0  0  0  0  0  0  0  0  0  0
    5.4641   -0.9821    0.0000 P   0  0  0  0  0  0  0  0  0  0  0  0
    4.5981   -1.4821    0.0000 O   0  0  0  0  0  0  0  0  0  0  0  0
    6.3301   -0.4821    0.0000 O   0  0  0  0  0  0  0  0  0  0  0  0
    4.9641   -0.1160    0.0000 O   0  0  0  0  0  0  0  0  0  0  0  0
    5.9641   -1.8481    0.0000 O   0  0  0  0  0  0  0  0  0  0  0  0
    3.7321   -0.9821    0.0000 C   0  0  0  0  0  0  0  0  0  0  0  0
    7.1962   -0.9821    0.0000 C   0  0  0  0  0  0  0  0  0  0  0  0
    5.4641    0.7500    0.0000 C   0  0  0  0  0  0  0  0  0  0  0  0
    2.8660   -1.4821    0.0000 C   0  0  0  0  0  0  0  0  0  0  0  0
    3.7321    0.0179    0.0000 C   0  0  0  0  0  0  0  0  0  0  0  0
    8.0622   -0.4821    0.0000 C   0  0  0  0  0  0  0  0  0  0  0  0
    7.1962   -1.9821    0.0000 C   0  0  0  0  0  0  0  0  0  0  0  0
    4.9641    1.6160    0.0000 C   0  0  0  0  0  0  0  0  0  0  0  0
    6.4641    0.7500    0.0000 C   0  0  0  0  0  0  0  0  0  0  0  0
    3.7321   -1.6021    0.0000 H   0  0  0  0  0  0  0  0  0  0  0  0
    6.6592   -1.2921    0.0000 H   0  0  0  0  0  0  0  0  0  0  0  0
    4.8441    0.7500    0.0000 H   0  0  0  0  0  0  0  0  0  0  0  0
    2.4675   -1.9570    0.0000 H   0  0  0  0  0  0  0  0  0  0  0  0
    3.2646   -1.9570    0.0000 H   0  0  0  0  0  0  0  0  0  0  0  0
    4.3426   -0.0897    0.0000 H   0  0  0  0  0  0  0  0  0  0  0  0
    3.9441    0.6006    0.0000 H   0  0  0  0  0  0  0  0  0  0  0  0
    8.4607   -0.0071    0.0000 H   0  0  0  0  0  0  0  0  0  0  0  0
    7.6637   -0.0071    0.0000 H   0  0  0  0  0  0  0  0  0  0  0  0
    6.5856   -1.8744    0.0000 H   0  0  0  0  0  0  0  0  0  0  0  0
    6.9841   -2.5647    0.0000 H   0  0  0  0  0  0  0  0  0  0  0  0
    4.4892    2.0146    0.0000 H   0  0  0  0  0  0  0  0  0  0  0  0
    4.4892    1.2175    0.0000 H   0  0  0  0  0  0  0  0  0  0  0  0
    6.3564    0.1394    0.0000 H   0  0  0  0  0  0  0  0  0  0  0  0
    7.0467    0.5379    0.0000 H   0  0  0  0  0  0  0  0  0  0  0  0
  1 15  1  0  0  0  0
  2 16  1  0  0  0  0
  3 17  1  0  0  0  0
  4 18  1  0  0  0  0
  5 19  1  0  0  0  0
  6 20  1  0  0  0  0
  7  8  1  0  0  0  0
  7  9  1  0  0  0  0
  7 10  1  0  0  0  0
  7 11  2  0  0  0  0
  8 12  1  0  0  0  0
  9 13  1  0  0  0  0
 10 14  1  0  0  0  0
 12 15  1  0  0  0  0
 12 16  1  0  0  0  0
 12 21  1  0  0  0  0
 13 17  1  0  0  0  0
 13 18  1  0  0  0  0
 13 22  1  0  0  0  0
 14 19  1  0  0  0  0
 14 20  1  0  0  0  0
 14 23  1  0  0  0  0
 15 24  1  0  0  0  0
 15 25  1  0  0  0  0
 16 26  1  0  0  0  0
 16 27  1  0  0  0  0
 17 28  1  0  0  0  0
 17 29  1  0  0  0  0
 18 30  1  0  0  0  0
 18 31  1  0  0  0  0
 19 32  1  0  0  0  0
 19 33  1  0  0  0  0
 20 34  1  0  0  0  0
 20 35  1  0  0  0  0
M  END
> <PUBCHEM_COMPOUND_CID>
26177

> <PUBCHEM_COMPOUND_CANONICALIZED>
1

> <PUBCHEM_CACTVS_COMPLEXITY>
243

> <PUBCHEM_CACTVS_HBOND_ACCEPTOR>
4

> <PUBCHEM_CACTVS_HBOND_DONOR>
0

> <PUBCHEM_CACTVS_ROTATABLE_BOND>
12

> <PUBCHEM_CACTVS_SUBSKEYS>
AAADccBwOAIHAAAAAAAAAAAAAAAAAAAAAAAAAAAAAAAAAAAAAAAAGgIAACAACBeggEIAAAAAARAAQAAAAIAAAAAAAAAAAAAAAwAAAAAAAAAAAAAAAAAAAAAAAAAAAAAAAAAAAAAAAAAAAAAAAAAAAAAAAA==

> <PUBCHEM_IUPAC_OPENEYE_NAME>
tris[2-chloro-1-(chloromethyl)ethyl] phosphate

> <PUBCHEM_IUPAC_CAS_NAME>
phosphoric acid tris(1,3-dichloropropan-2-yl) ester

> <PUBCHEM_IUPAC_NAME_MARKUP>
tris(1,3-dichloropropan-2-yl) phosphate

> <PUBCHEM_IUPAC_NAME>
tris(1,3-dichloropropan-2-yl) phosphate

> <PUBCHEM_IUPAC_SYSTEMATIC_NAME>
tris[1,3-bis(chloranyl)propan-2-yl] phosphate

> <PUBCHEM_IUPAC_TRADITIONAL_NAME>
phosphoric acid tris[2-chloro-1-(chloromethyl)ethyl] ester

> <PUBCHEM_IUPAC_INCHI>
InChI=1S/C9H15Cl6O4P/c10-1-7(2-11)17-20(16,18-8(3-12)4-13)19-9(5-14)6-15/h7-9H,1-6H2

> <PUBCHEM_IUPAC_INCHIKEY>
ASLWPAWFJZFCKF-UHFFFAOYSA-N

> <PUBCHEM_XLOGP3_AA>
3.3

> <PUBCHEM_EXACT_MASS>
429.880962

> <PUBCHEM_MOLECULAR_FORMULA>
C9H15Cl6O4P

> <PUBCHEM_MOLECULAR_WEIGHT>
430.9

> <PUBCHEM_SMILES>
C(C(CCl)OP(=O)(OC(CCl)CCl)OC(CCl)CCl)Cl

> <PUBCHEM_CONNECTIVITY_SMILES>
C(C(CCl)OP(=O)(OC(CCl)CCl)OC(CCl)CCl)Cl

> <PUBCHEM_CACTVS_TPSA>
44.8

> <PUBCHEM_MONOISOTOPIC_WEIGHT>
427.883912

> <PUBCHEM_TOTAL_CHARGE>
0

> <PUBCHEM_HEAVY_ATOM_COUNT>
20

> <PUBCHEM_ATOM_DEF_STEREO_COUNT>
0

> <PUBCHEM_ATOM_UDEF_STEREO_COUNT>
0

> <PUBCHEM_BOND_DEF_STEREO_COUNT>
0

> <PUBCHEM_BOND_UDEF_STEREO_COUNT>
0

> <PUBCHEM_ISOTOPIC_ATOM_COUNT>
0

> <PUBCHEM_COMPONENT_COUNT>
1

> <PUBCHEM_CACTVS_TAUTO_COUNT>
-1

> <PUBCHEM_COORDINATE_TYPE>
1
5
255

$$$$
