27290
  -OEChem-08032615102D

 20 21  0     0  0  0  0  0  0999 V2000
    4.6783   -0.8042    0.0000 S   0  0  0  0  0  0  0  0  0  0  0  0
    5.4883   -1.3906    0.0000 O   0  0  0  0  0  0  0  0  0  0  0  0
    4.3709   -1.7558    0.0000 O   0  0  0  0  0  0  0  0  0  0  0  0
    4.9889    1.7558    0.0000 O   0  0  0  0  0  0  0  0  0  0  0  0
    5.2619    0.0005    0.0000 N   0  0  0  0  0  0  0  0  0  0  0  0
    3.7321   -0.4995    0.0000 C   0  0  0  0  0  0  0  0  0  0  0  0
    3.7321    0.5005    0.0000 C   0  0  0  0  0  0  0  0  0  0  0  0
    4.6783    0.8053    0.0000 C   0  0  0  0  0  0  0  0  0  0  0  0
    2.8660   -0.9995    0.0000 C   0  0  0  0  0  0  0  0  0  0  0  0
    2.8660    1.0005    0.0000 C   0  0  0  0  0  0  0  0  0  0  0  0
    6.2619    0.0005    0.0000 C   0  0  0  0  0  0  0  0  0  0  0  0
    2.0000   -0.4995    0.0000 C   0  0  0  0  0  0  0  0  0  0  0  0
    2.0000    0.5005    0.0000 C   0  0  0  0  0  0  0  0  0  0  0  0
    2.8660   -1.6195    0.0000 H   0  0  0  0  0  0  0  0  0  0  0  0
    6.2619   -0.6195    0.0000 H   0  0  0  0  0  0  0  0  0  0  0  0
    6.8819    0.0005    0.0000 H   0  0  0  0  0  0  0  0  0  0  0  0
    6.2619    0.6205    0.0000 H   0  0  0  0  0  0  0  0  0  0  0  0
    2.8660    1.6205    0.0000 H   0  0  0  0  0  0  0  0  0  0  0  0
    1.4631   -0.8095    0.0000 H   0  0  0  0  0  0  0  0  0  0  0  0
    1.4631    0.8105    0.0000 H   0  0  0  0  0  0  0  0  0  0  0  0
  1  2  2  0  0  0  0
  1  3  2  0  0  0  0
  1  5  1  0  0  0  0
  1  6  1  0  0  0  0
  4  8  2  0  0  0  0
  5  8  1  0  0  0  0
  5 11  1  0  0  0  0
  6  7  1  0  0  0  0
  6  9  2  0  0  0  0
  7  8  1  0  0  0  0
  7 10  2  0  0  0  0
  9 12  1  0  0  0  0
  9 14  1  0  0  0  0
 10 13  1  0  0  0  0
 10 18  1  0  0  0  0
 11 15  1  0  0  0  0
 11 16  1  0  0  0  0
 11 17  1  0  0  0  0
 12 13  2  0  0  0  0
 12 19  1  0  0  0  0
 13 20  1  0  0  0  0
M  END
> <PUBCHEM_COMPOUND_CID>
27290

> <PUBCHEM_COMPOUND_CANONICALIZED>
1

> <PUBCHEM_CACTVS_COMPLEXITY>
330

> <PUBCHEM_CACTVS_HBOND_ACCEPTOR>
3

> <PUBCHEM_CACTVS_HBOND_DONOR>
0

> <PUBCHEM_CACTVS_ROTATABLE_BOND>
0

> <PUBCHEM_CACTVS_SUBSKEYS>
AAADcYByMABAAAAAAAAAAAAAAAAAAWAAAAAwAAAAAAAAAFgBAAAAHgQAQAAADACB2AQyAYIAAAKIAiFSEHDCABAkAAAIiBkIBMgIIDKAlRGEIQhgggAIiYcYiACOAAAAAAAEAAAAAAAAAAgAAAAAAAAAAA==

> <PUBCHEM_IUPAC_OPENEYE_NAME>
2-methyl-1,1-dioxo-1,2-benzothiazol-3-one

> <PUBCHEM_IUPAC_CAS_NAME>
2-methyl-1,1-dioxo-1,2-benzothiazol-3-one

> <PUBCHEM_IUPAC_NAME_MARKUP>
2-methyl-1,1-dioxo-1,2-benzothiazol-3-one

> <PUBCHEM_IUPAC_NAME>
2-methyl-1,1-dioxo-1,2-benzothiazol-3-one

> <PUBCHEM_IUPAC_SYSTEMATIC_NAME>
2-methyl-1,1-bis(oxidanylidene)-1,2-benzothiazol-3-one

> <PUBCHEM_IUPAC_TRADITIONAL_NAME>
1,1-diketo-2-methyl-1,2-benzothiazol-3-one

> <PUBCHEM_IUPAC_INCHI>
InChI=1S/C8H7NO3S/c1-9-8(10)6-4-2-3-5-7(6)13(9,11)12/h2-5H,1H3

> <PUBCHEM_IUPAC_INCHIKEY>
DDIIAJRLFATEEE-UHFFFAOYSA-N

> <PUBCHEM_XLOGP3_AA>
0.6

> <PUBCHEM_EXACT_MASS>
197.01466426

> <PUBCHEM_MOLECULAR_FORMULA>
C8H7NO3S

> <PUBCHEM_MOLECULAR_WEIGHT>
197.21

> <PUBCHEM_SMILES>
CN1C(=O)C2=CC=CC=C2S1(=O)=O

> <PUBCHEM_CONNECTIVITY_SMILES>
CN1C(=O)C2=CC=CC=C2S1(=O)=O

> <PUBCHEM_CACTVS_TPSA>
62.8

> <PUBCHEM_MONOISOTOPIC_WEIGHT>
197.01466426

> <PUBCHEM_TOTAL_CHARGE>
0

> <PUBCHEM_HEAVY_ATOM_COUNT>
13

> <PUBCHEM_ATOM_DEF_STEREO_COUNT>
0

> <PUBCHEM_ATOM_UDEF_STEREO_COUNT>
0

> <PUBCHEM_BOND_DEF_STEREO_COUNT>
0

> <PUBCHEM_BOND_UDEF_STEREO_COUNT>
0

> <PUBCHEM_ISOTOPIC_ATOM_COUNT>
0

> <PUBCHEM_COMPONENT_COUNT>
1

> <PUBCHEM_CACTVS_TAUTO_COUNT>
-1

> <PUBCHEM_COORDINATE_TYPE>
1
5
255

> <PUBCHEM_BONDANNOTATIONS>
10  13  8
12  13  8
6  7  8
6  9  8
7  10  8
9  12  8

$$$$
