2733920
  -OEChem-05122610032D

 21 22  0     1  0  0  0  0  0999 V2000
    6.7619    1.0631    0.0000 O   0  0  0  0  0  0  0  0  0  0  0  0
    6.7619   -0.6690    0.0000 O   0  0  0  0  0  0  0  0  0  0  0  0
    4.6783   -0.6077    0.0000 N   0  0  0  0  0  0  0  0  0  0  0  0
    5.2619    0.1970    0.0000 C   0  0  1  0  0  0  0  0  0  0  0  0
    4.6783    1.0018    0.0000 C   0  0  0  0  0  0  0  0  0  0  0  0
    3.7321    0.6970    0.0000 C   0  0  0  0  0  0  0  0  0  0  0  0
    3.7321   -0.3030    0.0000 C   0  0  0  0  0  0  0  0  0  0  0  0
    2.8660    1.1970    0.0000 C   0  0  0  0  0  0  0  0  0  0  0  0
    2.8660   -0.8030    0.0000 C   0  0  0  0  0  0  0  0  0  0  0  0
    6.2619    0.1970    0.0000 C   0  0  0  0  0  0  0  0  0  0  0  0
    2.0000    0.6970    0.0000 C   0  0  0  0  0  0  0  0  0  0  0  0
    2.0000   -0.3030    0.0000 C   0  0  0  0  0  0  0  0  0  0  0  0
    5.5436   -0.3553    0.0000 H   0  0  0  0  0  0  0  0  0  0  0  0
    5.2157    1.3110    0.0000 H   0  0  0  0  0  0  0  0  0  0  0  0
    4.4272    1.5687    0.0000 H   0  0  0  0  0  0  0  0  0  0  0  0
    4.8709   -1.1970    0.0000 H   0  0  0  0  0  0  0  0  0  0  0  0
    2.8660    1.8170    0.0000 H   0  0  0  0  0  0  0  0  0  0  0  0
    2.8660   -1.4230    0.0000 H   0  0  0  0  0  0  0  0  0  0  0  0
    1.4631    1.0070    0.0000 H   0  0  0  0  0  0  0  0  0  0  0  0
    1.4631   -0.6130    0.0000 H   0  0  0  0  0  0  0  0  0  0  0  0
    7.3819    1.0631    0.0000 H   0  0  0  0  0  0  0  0  0  0  0  0
  1 10  1  0  0  0  0
  1 21  1  0  0  0  0
  2 10  2  0  0  0  0
  3  4  1  0  0  0  0
  3  7  1  0  0  0  0
  3 16  1  0  0  0  0
  4  5  1  0  0  0  0
  4 10  1  1  0  0  0
  4 13  1  0  0  0  0
  5  6  1  0  0  0  0
  5 14  1  0  0  0  0
  5 15  1  0  0  0  0
  6  7  1  0  0  0  0
  6  8  2  0  0  0  0
  7  9  2  0  0  0  0
  8 11  1  0  0  0  0
  8 17  1  0  0  0  0
  9 12  1  0  0  0  0
  9 18  1  0  0  0  0
 11 12  2  0  0  0  0
 11 19  1  0  0  0  0
 12 20  1  0  0  0  0
M  END
> <PUBCHEM_COMPOUND_CID>
2733920

> <PUBCHEM_COMPOUND_CANONICALIZED>
1

> <PUBCHEM_CACTVS_COMPLEXITY>
193

> <PUBCHEM_CACTVS_HBOND_ACCEPTOR>
3

> <PUBCHEM_CACTVS_HBOND_DONOR>
2

> <PUBCHEM_CACTVS_ROTATABLE_BOND>
1

> <PUBCHEM_CACTVS_SUBSKEYS>
AAADccByMAAAAAAAAAAAAAAAAAAAAWAAAAAwAAAAAAAAAFgBAAAAHgAQCAAADCjBmAQwyILAAgCIAiTSSACCAAAhAgAIiIGIZIgKIDLAkbGEYAhkkADYyAeY2aGeAAAAAAACAAAAAAAAAAQAAAAAAAAAAA==

> <PUBCHEM_IUPAC_OPENEYE_NAME>
(2S)-indoline-2-carboxylic acid

> <PUBCHEM_IUPAC_CAS_NAME>
(2S)-2,3-dihydro-1H-indole-2-carboxylic acid

> <PUBCHEM_IUPAC_NAME_MARKUP>
(2<I>S</I>)-2,3-dihydro-1<I>H</I>-indole-2-carboxylic acid

> <PUBCHEM_IUPAC_NAME>
(2S)-2,3-dihydro-1H-indole-2-carboxylic acid

> <PUBCHEM_IUPAC_SYSTEMATIC_NAME>
(2S)-2,3-dihydro-1H-indole-2-carboxylic acid

> <PUBCHEM_IUPAC_TRADITIONAL_NAME>
(2S)-indoline-2-carboxylic acid

> <PUBCHEM_IUPAC_INCHI>
InChI=1S/C9H9NO2/c11-9(12)8-5-6-3-1-2-4-7(6)10-8/h1-4,8,10H,5H2,(H,11,12)/t8-/m0/s1

> <PUBCHEM_IUPAC_INCHIKEY>
QNRXNRGSOJZINA-QMMMGPOBSA-N

> <PUBCHEM_XLOGP3_AA>
1.6

> <PUBCHEM_EXACT_MASS>
163.063328530

> <PUBCHEM_MOLECULAR_FORMULA>
C9H9NO2

> <PUBCHEM_MOLECULAR_WEIGHT>
163.17

> <PUBCHEM_SMILES>
C1[C@H](NC2=CC=CC=C21)C(=O)O

> <PUBCHEM_CONNECTIVITY_SMILES>
C1C(NC2=CC=CC=C21)C(=O)O

> <PUBCHEM_CACTVS_TPSA>
49.3

> <PUBCHEM_MONOISOTOPIC_WEIGHT>
163.063328530

> <PUBCHEM_TOTAL_CHARGE>
0

> <PUBCHEM_HEAVY_ATOM_COUNT>
12

> <PUBCHEM_ATOM_DEF_STEREO_COUNT>
1

> <PUBCHEM_ATOM_UDEF_STEREO_COUNT>
0

> <PUBCHEM_BOND_DEF_STEREO_COUNT>
0

> <PUBCHEM_BOND_UDEF_STEREO_COUNT>
0

> <PUBCHEM_ISOTOPIC_ATOM_COUNT>
0

> <PUBCHEM_COMPONENT_COUNT>
1

> <PUBCHEM_CACTVS_TAUTO_COUNT>
-1

> <PUBCHEM_COORDINATE_TYPE>
1
5
255

> <PUBCHEM_BONDANNOTATIONS>
11  12  8
4  10  5
6  7  8
6  8  8
7  9  8
8  11  8
9  12  8

$$$$
