2733139
  -OEChem-08032615102D

 10  9  0     0  0  0  0  0  0999 V2000
    5.1350    0.7500    0.0000 O   0  0  0  0  0  0  0  0  0  0  0  0
    2.5369   -0.7500    0.0000 O   0  0  0  0  0  0  0  0  0  0  0  0
    4.2690    0.2500    0.0000 C   0  0  0  0  0  0  0  0  0  0  0  0
    3.4030   -0.2500    0.0000 C   0  0  0  0  0  0  0  0  0  0  0  0
    4.5790   -0.2869    0.0000 H   1  0  0  0  0  0  0  0  0  0  0  0
    3.9590    0.7869    0.0000 H   1  0  0  0  0  0  0  0  0  0  0  0
    3.0930    0.2869    0.0000 H   1  0  0  0  0  0  0  0  0  0  0  0
    3.7130   -0.7869    0.0000 H   1  0  0  0  0  0  0  0  0  0  0  0
    5.6720    0.4400    0.0000 H   1  0  0  0  0  0  0  0  0  0  0  0
    2.0000   -0.4400    0.0000 H   1  0  0  0  0  0  0  0  0  0  0  0
  1  3  1  0  0  0  0
  1  9  1  0  0  0  0
  2  4  1  0  0  0  0
  2 10  1  0  0  0  0
  3  4  1  0  0  0  0
  3  5  1  0  0  0  0
  3  6  1  0  0  0  0
  4  7  1  0  0  0  0
  4  8  1  0  0  0  0
M  ISO  6   5   2   6   2   7   2   8   2   9   2  10   2
M  END
> <PUBCHEM_COMPOUND_CID>
2733139

> <PUBCHEM_COMPOUND_CANONICALIZED>
1

> <PUBCHEM_CACTVS_COMPLEXITY>
6

> <PUBCHEM_CACTVS_HBOND_ACCEPTOR>
2

> <PUBCHEM_CACTVS_HBOND_DONOR>
2

> <PUBCHEM_CACTVS_ROTATABLE_BOND>
1

> <PUBCHEM_CACTVS_SUBSKEYS>
AAADcYBAMAAAAAAAAAAAAAAAAAAAAAAAAAAAAAAAAAAAAAAAAAAAGgAACAAAAACggAIAAAAAAgAAAAAAAAAAAAAAAAAAAAAAAAABEAAAAAAAAAAAAAABAAAAAAAAAAAAAAAAAAAAAAAAAAAAAAAAAAAAAA==

> <PUBCHEM_IUPAC_OPENEYE_NAME>
1,1,2,2-tetradeuterio-1,2-dideuteriooxy-ethane

> <PUBCHEM_IUPAC_CAS_NAME>
1,1,2,2-tetradeuterio-1,2-dideuteriooxyethane

> <PUBCHEM_IUPAC_NAME_MARKUP>
1,1,2,2-tetradeuterio-1,2-dideuteriooxyethane

> <PUBCHEM_IUPAC_NAME>
1,1,2,2-tetradeuterio-1,2-dideuteriooxyethane

> <PUBCHEM_IUPAC_SYSTEMATIC_NAME>
1,1,2,2-tetradeuterio-1,2-dideuteriooxy-ethane

> <PUBCHEM_IUPAC_TRADITIONAL_NAME>
1,1,2,2-tetradeuterio-1,2-dideuteriooxy-ethane

> <PUBCHEM_IUPAC_INCHI>
InChI=1S/C2H6O2/c3-1-2-4/h3-4H,1-2H2/i1D2,2D2,3D,4D

> <PUBCHEM_IUPAC_INCHIKEY>
LYCAIKOWRPUZTN-UFSLNRCZSA-N

> <PUBCHEM_XLOGP3>
-1.4

> <PUBCHEM_EXACT_MASS>
68.074439906

> <PUBCHEM_MOLECULAR_FORMULA>
C2H6O2

> <PUBCHEM_MOLECULAR_WEIGHT>
68.10

> <PUBCHEM_SMILES>
[2H]C([2H])(C([2H])([2H])O[2H])O[2H]

> <PUBCHEM_CONNECTIVITY_SMILES>
C(CO)O

> <PUBCHEM_CACTVS_TPSA>
40.5

> <PUBCHEM_MONOISOTOPIC_WEIGHT>
68.074439906

> <PUBCHEM_TOTAL_CHARGE>
0

> <PUBCHEM_HEAVY_ATOM_COUNT>
4

> <PUBCHEM_ATOM_DEF_STEREO_COUNT>
0

> <PUBCHEM_ATOM_UDEF_STEREO_COUNT>
0

> <PUBCHEM_BOND_DEF_STEREO_COUNT>
0

> <PUBCHEM_BOND_UDEF_STEREO_COUNT>
0

> <PUBCHEM_ISOTOPIC_ATOM_COUNT>
6

> <PUBCHEM_COMPONENT_COUNT>
1

> <PUBCHEM_CACTVS_TAUTO_COUNT>
-1

> <PUBCHEM_COORDINATE_TYPE>
1
5
255

$$$$
