27513
  -OEChem-05122609112D

 17 18  0     0  0  0  0  0  0999 V2000
    6.4103   -0.8577    0.0000 N   0  0  0  0  0  0  0  0  0  0  0  0
    2.0000    1.4470    0.0000 N   0  0  0  0  0  0  0  0  0  0  0  0
    5.4641    0.4470    0.0000 C   0  0  0  0  0  0  0  0  0  0  0  0
    5.4641   -0.5530    0.0000 C   0  0  0  0  0  0  0  0  0  0  0  0
    6.4103    0.7518    0.0000 C   0  0  0  0  0  0  0  0  0  0  0  0
    4.5981    0.9470    0.0000 C   0  0  0  0  0  0  0  0  0  0  0  0
    4.5981   -1.0530    0.0000 C   0  0  0  0  0  0  0  0  0  0  0  0
    6.9939   -0.0530    0.0000 C   0  0  0  0  0  0  0  0  0  0  0  0
    3.7321    0.4470    0.0000 C   0  0  0  0  0  0  0  0  0  0  0  0
    3.7321   -0.5530    0.0000 C   0  0  0  0  0  0  0  0  0  0  0  0
    2.8660    0.9470    0.0000 C   0  0  0  0  0  0  0  0  0  0  0  0
    6.6029    1.3411    0.0000 H   0  0  0  0  0  0  0  0  0  0  0  0
    6.6029   -1.4470    0.0000 H   0  0  0  0  0  0  0  0  0  0  0  0
    4.5981    1.5670    0.0000 H   0  0  0  0  0  0  0  0  0  0  0  0
    4.5981   -1.6730    0.0000 H   0  0  0  0  0  0  0  0  0  0  0  0
    7.6139   -0.0530    0.0000 H   0  0  0  0  0  0  0  0  0  0  0  0
    3.1951   -0.8630    0.0000 H   0  0  0  0  0  0  0  0  0  0  0  0
  1  4  1  0  0  0  0
  1  8  1  0  0  0  0
  1 13  1  0  0  0  0
  2 11  3  0  0  0  0
  3  4  2  0  0  0  0
  3  5  1  0  0  0  0
  3  6  1  0  0  0  0
  4  7  1  0  0  0  0
  5  8  2  0  0  0  0
  5 12  1  0  0  0  0
  6  9  2  0  0  0  0
  6 14  1  0  0  0  0
  7 10  2  0  0  0  0
  7 15  1  0  0  0  0
  8 16  1  0  0  0  0
  9 10  1  0  0  0  0
  9 11  1  0  0  0  0
 10 17  1  0  0  0  0
M  END
> <PUBCHEM_COMPOUND_CID>
27513

> <PUBCHEM_COMPOUND_CANONICALIZED>
1

> <PUBCHEM_CACTVS_COMPLEXITY>
191

> <PUBCHEM_CACTVS_HBOND_ACCEPTOR>
1

> <PUBCHEM_CACTVS_HBOND_DONOR>
1

> <PUBCHEM_CACTVS_ROTATABLE_BOND>
0

> <PUBCHEM_CACTVS_SUBSKEYS>
AAADcYBzAAAAAAAAAAAAAAAAAAAAAWAAAAAwAAAAAAAAAFgB8AAAHAAQAAAADAjBHgQ8wPLJkACwBzRnRACigCAxAiAI2aA4ZJgIoOLAkZGEIAhgkADIyA8QgMAOCAACAAACAAAQAAQAAAQAAAAAAAAAAA==

> <PUBCHEM_IUPAC_OPENEYE_NAME>
1H-indole-5-carbonitrile

> <PUBCHEM_IUPAC_CAS_NAME>
1H-indole-5-carbonitrile

> <PUBCHEM_IUPAC_NAME_MARKUP>
1<I>H</I>-indole-5-carbonitrile

> <PUBCHEM_IUPAC_NAME>
1H-indole-5-carbonitrile

> <PUBCHEM_IUPAC_SYSTEMATIC_NAME>
1H-indole-5-carbonitrile

> <PUBCHEM_IUPAC_TRADITIONAL_NAME>
1H-indole-5-carbonitrile

> <PUBCHEM_IUPAC_INCHI>
InChI=1S/C9H6N2/c10-6-7-1-2-9-8(5-7)3-4-11-9/h1-5,11H

> <PUBCHEM_IUPAC_INCHIKEY>
YHYLDEVWYOFIJK-UHFFFAOYSA-N

> <PUBCHEM_XLOGP3>
2.4

> <PUBCHEM_EXACT_MASS>
142.053098200

> <PUBCHEM_MOLECULAR_FORMULA>
C9H6N2

> <PUBCHEM_MOLECULAR_WEIGHT>
142.16

> <PUBCHEM_SMILES>
C1=CC2=C(C=CN2)C=C1C#N

> <PUBCHEM_CONNECTIVITY_SMILES>
C1=CC2=C(C=CN2)C=C1C#N

> <PUBCHEM_CACTVS_TPSA>
39.6

> <PUBCHEM_MONOISOTOPIC_WEIGHT>
142.053098200

> <PUBCHEM_TOTAL_CHARGE>
0

> <PUBCHEM_HEAVY_ATOM_COUNT>
11

> <PUBCHEM_ATOM_DEF_STEREO_COUNT>
0

> <PUBCHEM_ATOM_UDEF_STEREO_COUNT>
0

> <PUBCHEM_BOND_DEF_STEREO_COUNT>
0

> <PUBCHEM_BOND_UDEF_STEREO_COUNT>
0

> <PUBCHEM_ISOTOPIC_ATOM_COUNT>
0

> <PUBCHEM_COMPONENT_COUNT>
1

> <PUBCHEM_CACTVS_TAUTO_COUNT>
-1

> <PUBCHEM_COORDINATE_TYPE>
1
5
255

> <PUBCHEM_BONDANNOTATIONS>
1  4  8
1  8  8
3  4  8
3  5  8
3  6  8
4  7  8
5  8  8
6  9  8
7  10  8
9  10  8

$$$$
