2760333
  -OEChem-05122608202D

 35 34  0     0  0  0  0  0  0999 V2000
   11.5632    0.6160    0.0000 F   0  0  0  0  0  0  0  0  0  0  0  0
   12.5632   -1.1160    0.0000 F   0  0  0  0  0  0  0  0  0  0  0  0
   10.6972    0.1160    0.0000 F   0  0  0  0  0  0  0  0  0  0  0  0
   11.6972   -1.6160    0.0000 F   0  0  0  0  0  0  0  0  0  0  0  0
   12.4292    1.1160    0.0000 F   0  0  0  0  0  0  0  0  0  0  0  0
   13.4292   -0.6160    0.0000 F   0  0  0  0  0  0  0  0  0  0  0  0
    8.9651   -1.6160    0.0000 F   0  0  0  0  0  0  0  0  0  0  0  0
    9.9651    0.1160    0.0000 F   0  0  0  0  0  0  0  0  0  0  0  0
    8.0991   -1.1160    0.0000 F   0  0  0  0  0  0  0  0  0  0  0  0
    9.0991    0.6160    0.0000 F   0  0  0  0  0  0  0  0  0  0  0  0
   14.6613    1.2500    0.0000 F   0  0  0  0  0  0  0  0  0  0  0  0
   14.2953   -0.1160    0.0000 F   0  0  0  0  0  0  0  0  0  0  0  0
   13.2953    1.6160    0.0000 F   0  0  0  0  0  0  0  0  0  0  0  0
    6.3671    0.6160    0.0000 F   0  0  0  0  0  0  0  0  0  0  0  0
    7.3671   -1.1160    0.0000 F   0  0  0  0  0  0  0  0  0  0  0  0
    5.5010    0.1160    0.0000 F   0  0  0  0  0  0  0  0  0  0  0  0
    6.5010   -1.6160    0.0000 F   0  0  0  0  0  0  0  0  0  0  0  0
    3.7690   -1.6160    0.0000 F   0  0  0  0  0  0  0  0  0  0  0  0
    4.7690    0.1160    0.0000 F   0  0  0  0  0  0  0  0  0  0  0  0
   10.3312   -1.2500    0.0000 O   0  0  0  0  0  0  0  0  0  0  0  0
    7.7331    0.2500    0.0000 O   0  0  0  0  0  0  0  0  0  0  0  0
    5.1350   -1.2500    0.0000 O   0  0  0  0  0  0  0  0  0  0  0  0
    2.5369   -0.7500    0.0000 O   0  0  0  0  0  0  0  0  0  0  0  0
    3.4030    0.7500    0.0000 O   0  0  0  0  0  0  0  0  0  0  0  0
   12.0632   -0.2500    0.0000 C   0  0  0  0  0  0  0  0  0  0  0  0
   11.1972   -0.7500    0.0000 C   0  0  0  0  0  0  0  0  0  0  0  0
   12.9292    0.2500    0.0000 C   0  0  0  0  0  0  0  0  0  0  0  0
    9.4651   -0.7500    0.0000 C   0  0  0  0  0  0  0  0  0  0  0  0
    8.5991   -0.2500    0.0000 C   0  0  0  0  0  0  0  0  0  0  0  0
   13.7953    0.7500    0.0000 C   0  0  0  0  0  0  0  0  0  0  0  0
    6.8671   -0.2500    0.0000 C   0  0  0  0  0  0  0  0  0  0  0  0
    6.0010   -0.7500    0.0000 C   0  0  0  0  0  0  0  0  0  0  0  0
    4.2690   -0.7500    0.0000 C   0  0  0  0  0  0  0  0  0  0  0  0
    3.4030   -0.2500    0.0000 C   0  0  0  0  0  0  0  0  0  0  0  0
    2.0000   -0.4400    0.0000 H   0  0  0  0  0  0  0  0  0  0  0  0
  1 25  1  0  0  0  0
  2 25  1  0  0  0  0
  3 26  1  0  0  0  0
  4 26  1  0  0  0  0
  5 27  1  0  0  0  0
  6 27  1  0  0  0  0
  7 28  1  0  0  0  0
  8 28  1  0  0  0  0
  9 29  1  0  0  0  0
 10 29  1  0  0  0  0
 11 30  1  0  0  0  0
 12 30  1  0  0  0  0
 13 30  1  0  0  0  0
 14 31  1  0  0  0  0
 15 31  1  0  0  0  0
 16 32  1  0  0  0  0
 17 32  1  0  0  0  0
 18 33  1  0  0  0  0
 19 33  1  0  0  0  0
 20 26  1  0  0  0  0
 20 28  1  0  0  0  0
 21 29  1  0  0  0  0
 21 31  1  0  0  0  0
 22 32  1  0  0  0  0
 22 33  1  0  0  0  0
 23 34  1  0  0  0  0
 23 35  1  0  0  0  0
 24 34  2  0  0  0  0
 25 26  1  0  0  0  0
 25 27  1  0  0  0  0
 27 30  1  0  0  0  0
 28 29  1  0  0  0  0
 31 32  1  0  0  0  0
 33 34  1  0  0  0  0
M  END
> <PUBCHEM_COMPOUND_CID>
2760333

> <PUBCHEM_COMPOUND_CANONICALIZED>
1

> <PUBCHEM_CACTVS_COMPLEXITY>
755

> <PUBCHEM_CACTVS_HBOND_ACCEPTOR>
24

> <PUBCHEM_CACTVS_HBOND_DONOR>
1

> <PUBCHEM_CACTVS_ROTATABLE_BOND>
11

> <PUBCHEM_CACTVS_SUBSKEYS>
AAADcQBwOcAAAAAAAAAAAAAAAAAAAAAAAAAAAAAAAAAAAAAAAAAACwAACAAACAAAgBAACAAABgAIAACQCAIAAAAAAAAAAABAAAABAAAAAAQCAAAEAAADAAAAAAAAAAAAAAAAAAAAAAAAAAAAAAAAAAAAAA==

> <PUBCHEM_IUPAC_OPENEYE_NAME>
2,2-difluoro-2-[1,1,2,2-tetrafluoro-2-[1,1,2,2-tetrafluoro-2-(1,1,2,2,3,3,4,4,4-nonafluorobutoxy)ethoxy]ethoxy]acetic acid

> <PUBCHEM_IUPAC_CAS_NAME>
2,2-difluoro-2-[1,1,2,2-tetrafluoro-2-[1,1,2,2-tetrafluoro-2-(1,1,2,2,3,3,4,4,4-nonafluorobutoxy)ethoxy]ethoxy]acetic acid

> <PUBCHEM_IUPAC_NAME_MARKUP>
2,2-difluoro-2-[1,1,2,2-tetrafluoro-2-[1,1,2,2-tetrafluoro-2-(1,1,2,2,3,3,4,4,4-nonafluorobutoxy)ethoxy]ethoxy]acetic acid

> <PUBCHEM_IUPAC_NAME>
2,2-difluoro-2-[1,1,2,2-tetrafluoro-2-[1,1,2,2-tetrafluoro-2-(1,1,2,2,3,3,4,4,4-nonafluorobutoxy)ethoxy]ethoxy]acetic acid

> <PUBCHEM_IUPAC_SYSTEMATIC_NAME>
2,2-bis(fluoranyl)-2-[1,1,2,2-tetrakis(fluoranyl)-2-[1,1,2,2-tetrakis(fluoranyl)-2-[1,1,2,2,3,3,4,4,4-nonakis(fluoranyl)butoxy]ethoxy]ethoxy]ethanoic acid

> <PUBCHEM_IUPAC_TRADITIONAL_NAME>
2,2-difluoro-2-[1,1,2,2-tetrafluoro-2-[1,1,2,2-tetrafluoro-2-(1,1,2,2,3,3,4,4,4-nonafluorobutoxy)ethoxy]ethoxy]acetic acid

> <PUBCHEM_IUPAC_INCHI>
InChI=1S/C10HF19O5/c11-2(12,1(30)31)32-7(22,23)8(24,25)34-10(28,29)9(26,27)33-6(20,21)4(15,16)3(13,14)5(17,18)19/h(H,30,31)

> <PUBCHEM_IUPAC_INCHIKEY>
GDQLSTSWOFAQNO-UHFFFAOYSA-N

> <PUBCHEM_XLOGP3_AA>
6.4

> <PUBCHEM_EXACT_MASS>
561.9520582

> <PUBCHEM_MOLECULAR_FORMULA>
C10HF19O5

> <PUBCHEM_MOLECULAR_WEIGHT>
562.08

> <PUBCHEM_SMILES>
C(=O)(C(OC(C(OC(C(OC(C(C(C(F)(F)F)(F)F)(F)F)(F)F)(F)F)(F)F)(F)F)(F)F)(F)F)O

> <PUBCHEM_CONNECTIVITY_SMILES>
C(=O)(C(OC(C(OC(C(OC(C(C(C(F)(F)F)(F)F)(F)F)(F)F)(F)F)(F)F)(F)F)(F)F)(F)F)O

> <PUBCHEM_CACTVS_TPSA>
65

> <PUBCHEM_MONOISOTOPIC_WEIGHT>
561.9520582

> <PUBCHEM_TOTAL_CHARGE>
0

> <PUBCHEM_HEAVY_ATOM_COUNT>
34

> <PUBCHEM_ATOM_DEF_STEREO_COUNT>
0

> <PUBCHEM_ATOM_UDEF_STEREO_COUNT>
0

> <PUBCHEM_BOND_DEF_STEREO_COUNT>
0

> <PUBCHEM_BOND_UDEF_STEREO_COUNT>
0

> <PUBCHEM_ISOTOPIC_ATOM_COUNT>
0

> <PUBCHEM_COMPONENT_COUNT>
1

> <PUBCHEM_CACTVS_TAUTO_COUNT>
-1

> <PUBCHEM_COORDINATE_TYPE>
1
5
255

$$$$
