2774909
  -OEChem-05122609202D

 20 19  0     0  0  0  0  0  0999 V2000
    4.0981    1.0490    0.0000 F   0  0  0  0  0  0  0  0  0  0  0  0
    5.0981   -0.6830    0.0000 F   0  0  0  0  0  0  0  0  0  0  0  0
    3.2321    0.5490    0.0000 F   0  0  0  0  0  0  0  0  0  0  0  0
    4.2321   -1.1830    0.0000 F   0  0  0  0  0  0  0  0  0  0  0  0
    2.0000   -1.3170    0.0000 F   0  0  0  0  0  0  0  0  0  0  0  0
    2.3660    0.0490    0.0000 F   0  0  0  0  0  0  0  0  0  0  0  0
    3.3660   -1.6830    0.0000 F   0  0  0  0  0  0  0  0  0  0  0  0
    8.0622    0.1830    0.0000 O   0  0  0  0  0  0  0  0  0  0  0  0
    7.1962    1.6830    0.0000 O   0  0  0  0  0  0  0  0  0  0  0  0
    4.5981    0.1830    0.0000 C   0  0  0  0  0  0  0  0  0  0  0  0
    5.4641    0.6830    0.0000 C   0  0  0  0  0  0  0  0  0  0  0  0
    3.7321   -0.3170    0.0000 C   0  0  0  0  0  0  0  0  0  0  0  0
    6.3301    0.1830    0.0000 C   0  0  0  0  0  0  0  0  0  0  0  0
    2.8660   -0.8170    0.0000 C   0  0  0  0  0  0  0  0  0  0  0  0
    7.1962    0.6830    0.0000 C   0  0  0  0  0  0  0  0  0  0  0  0
    5.8626    1.1580    0.0000 H   0  0  0  0  0  0  0  0  0  0  0  0
    5.0656    1.1580    0.0000 H   0  0  0  0  0  0  0  0  0  0  0  0
    5.9316   -0.2919    0.0000 H   0  0  0  0  0  0  0  0  0  0  0  0
    6.7287   -0.2919    0.0000 H   0  0  0  0  0  0  0  0  0  0  0  0
    8.5991    0.4930    0.0000 H   0  0  0  0  0  0  0  0  0  0  0  0
  1 10  1  0  0  0  0
  2 10  1  0  0  0  0
  3 12  1  0  0  0  0
  4 12  1  0  0  0  0
  5 14  1  0  0  0  0
  6 14  1  0  0  0  0
  7 14  1  0  0  0  0
  8 15  1  0  0  0  0
  8 20  1  0  0  0  0
  9 15  2  0  0  0  0
 10 11  1  0  0  0  0
 10 12  1  0  0  0  0
 11 13  1  0  0  0  0
 11 16  1  0  0  0  0
 11 17  1  0  0  0  0
 12 14  1  0  0  0  0
 13 15  1  0  0  0  0
 13 18  1  0  0  0  0
 13 19  1  0  0  0  0
M  END
> <PUBCHEM_COMPOUND_CID>
2774909

> <PUBCHEM_COMPOUND_CANONICALIZED>
1

> <PUBCHEM_CACTVS_COMPLEXITY>
244

> <PUBCHEM_CACTVS_HBOND_ACCEPTOR>
9

> <PUBCHEM_CACTVS_HBOND_DONOR>
1

> <PUBCHEM_CACTVS_ROTATABLE_BOND>
4

> <PUBCHEM_CACTVS_SUBSKEYS>
AAADcYBgMcAAAAAAAAAAAAAAAAAAAAAAAAAAAAAAAAAAAAAAAAAAGwAACAAACACAgBAACAAAAgAIAACQCAAAAAAAAAAAAAEAAAAAABIAAAAAQAAEAAAAAAGISAAAAAAAAAAAAAAAAAAAAAAAAAAAAAAAAA==

> <PUBCHEM_IUPAC_OPENEYE_NAME>
4,4,5,5,6,6,6-heptafluorohexanoic acid

> <PUBCHEM_IUPAC_CAS_NAME>
4,4,5,5,6,6,6-heptafluorohexanoic acid

> <PUBCHEM_IUPAC_NAME_MARKUP>
4,4,5,5,6,6,6-heptafluorohexanoic acid

> <PUBCHEM_IUPAC_NAME>
4,4,5,5,6,6,6-heptafluorohexanoic acid

> <PUBCHEM_IUPAC_SYSTEMATIC_NAME>
4,4,5,5,6,6,6-heptakis(fluoranyl)hexanoic acid

> <PUBCHEM_IUPAC_TRADITIONAL_NAME>
4,4,5,5,6,6,6-heptafluorohexanoic acid

> <PUBCHEM_IUPAC_INCHI>
InChI=1S/C6H5F7O2/c7-4(8,2-1-3(14)15)5(9,10)6(11,12)13/h1-2H2,(H,14,15)

> <PUBCHEM_IUPAC_INCHIKEY>
ISFKSWMQWIRDNC-UHFFFAOYSA-N

> <PUBCHEM_XLOGP3_AA>
2.5

> <PUBCHEM_EXACT_MASS>
242.01777653

> <PUBCHEM_MOLECULAR_FORMULA>
C6H5F7O2

> <PUBCHEM_MOLECULAR_WEIGHT>
242.09

> <PUBCHEM_SMILES>
C(CC(C(C(F)(F)F)(F)F)(F)F)C(=O)O

> <PUBCHEM_CONNECTIVITY_SMILES>
C(CC(C(C(F)(F)F)(F)F)(F)F)C(=O)O

> <PUBCHEM_CACTVS_TPSA>
37.3

> <PUBCHEM_MONOISOTOPIC_WEIGHT>
242.01777653

> <PUBCHEM_TOTAL_CHARGE>
0

> <PUBCHEM_HEAVY_ATOM_COUNT>
15

> <PUBCHEM_ATOM_DEF_STEREO_COUNT>
0

> <PUBCHEM_ATOM_UDEF_STEREO_COUNT>
0

> <PUBCHEM_BOND_DEF_STEREO_COUNT>
0

> <PUBCHEM_BOND_UDEF_STEREO_COUNT>
0

> <PUBCHEM_ISOTOPIC_ATOM_COUNT>
0

> <PUBCHEM_COMPONENT_COUNT>
1

> <PUBCHEM_CACTVS_TAUTO_COUNT>
-1

> <PUBCHEM_COORDINATE_TYPE>
1
5
255

$$$$
