2774880
  -OEChem-05122610002D

 12 11  0     0  0  0  0  0  0999 V2000
    3.2321    0.8660    0.0000 F   0  0  0  0  0  0  0  0  0  0  0  0
    4.2321   -0.8660    0.0000 F   0  0  0  0  0  0  0  0  0  0  0  0
    2.0000   -0.0000    0.0000 F   0  0  0  0  0  0  0  0  0  0  0  0
    2.8660   -1.5000    0.0000 F   0  0  0  0  0  0  0  0  0  0  0  0
    4.5981    1.5000    0.0000 F   0  0  0  0  0  0  0  0  0  0  0  0
    6.3301    0.5000    0.0000 F   0  0  0  0  0  0  0  0  0  0  0  0
    5.4641   -1.0000    0.0000 F   0  0  0  0  0  0  0  0  0  0  0  0
    3.7321    0.0000    0.0000 C   0  0  0  0  0  0  0  0  0  0  0  0
    2.8660   -0.5000    0.0000 C   0  0  0  0  0  0  0  0  0  0  0  0
    4.5981    0.5000    0.0000 C   0  0  0  0  0  0  0  0  0  0  0  0
    5.4641    0.0000    0.0000 C   0  0  0  0  0  0  0  0  0  0  0  0
    2.8660    0.1200    0.0000 H   0  0  0  0  0  0  0  0  0  0  0  0
  1  8  1  0  0  0  0
  2  8  1  0  0  0  0
  3  9  1  0  0  0  0
  4  9  1  0  0  0  0
  5 10  1  0  0  0  0
  6 11  1  0  0  0  0
  7 11  1  0  0  0  0
  8  9  1  0  0  0  0
  8 10  1  0  0  0  0
  9 12  1  0  0  0  0
 10 11  2  0  0  0  0
M  END
> <PUBCHEM_COMPOUND_CID>
2774880

> <PUBCHEM_COMPOUND_CANONICALIZED>
1

> <PUBCHEM_CACTVS_COMPLEXITY>
165

> <PUBCHEM_CACTVS_HBOND_ACCEPTOR>
7

> <PUBCHEM_CACTVS_HBOND_DONOR>
0

> <PUBCHEM_CACTVS_ROTATABLE_BOND>
2

> <PUBCHEM_CACTVS_SUBSKEYS>
AAADcQBgAcAAAAAAAAAAAAAAAAAAAAAAAAAAAAAAAAAAAAAAAAAAGQAAAAAACACAABAAAAAAAACAAABAAAAAAAAgAAAAAAAAAAgAAAAAAAAAAAAAAAAAAAAAAAAAAAAAAAAAAAAAAAAAAAAAAAAAAAAAAA==

> <PUBCHEM_IUPAC_OPENEYE_NAME>
1,1,2,3,3,4,4-heptafluorobut-1-ene

> <PUBCHEM_IUPAC_CAS_NAME>
1,1,2,3,3,4,4-heptafluoro-1-butene

> <PUBCHEM_IUPAC_NAME_MARKUP>
1,1,2,3,3,4,4-heptafluorobut-1-ene

> <PUBCHEM_IUPAC_NAME>
1,1,2,3,3,4,4-heptafluorobut-1-ene

> <PUBCHEM_IUPAC_SYSTEMATIC_NAME>
1,1,2,3,3,4,4-heptakis(fluoranyl)but-1-ene

> <PUBCHEM_IUPAC_TRADITIONAL_NAME>
1,1,2,3,3,4,4-heptafluorobut-1-ene

> <PUBCHEM_IUPAC_INCHI>
InChI=1S/C4HF7/c5-1(2(6)7)4(10,11)3(8)9/h3H

> <PUBCHEM_IUPAC_INCHIKEY>
NUPBXTZOBYEVIR-UHFFFAOYSA-N

> <PUBCHEM_XLOGP3_AA>
2.3

> <PUBCHEM_EXACT_MASS>
181.99664717

> <PUBCHEM_MOLECULAR_FORMULA>
C4HF7

> <PUBCHEM_MOLECULAR_WEIGHT>
182.04

> <PUBCHEM_SMILES>
C(C(C(=C(F)F)F)(F)F)(F)F

> <PUBCHEM_CONNECTIVITY_SMILES>
C(C(C(=C(F)F)F)(F)F)(F)F

> <PUBCHEM_CACTVS_TPSA>
0

> <PUBCHEM_MONOISOTOPIC_WEIGHT>
181.99664717

> <PUBCHEM_TOTAL_CHARGE>
0

> <PUBCHEM_HEAVY_ATOM_COUNT>
11

> <PUBCHEM_ATOM_DEF_STEREO_COUNT>
0

> <PUBCHEM_ATOM_UDEF_STEREO_COUNT>
0

> <PUBCHEM_BOND_DEF_STEREO_COUNT>
0

> <PUBCHEM_BOND_UDEF_STEREO_COUNT>
0

> <PUBCHEM_ISOTOPIC_ATOM_COUNT>
0

> <PUBCHEM_COMPONENT_COUNT>
1

> <PUBCHEM_CACTVS_TAUTO_COUNT>
-1

> <PUBCHEM_COORDINATE_TYPE>
1
5
255

$$$$
