2776093
  -OEChem-05122608242D

 32 31  0     1  0  0  0  0  0999 V2000
    5.5981    1.1702    0.0000 F   0  0  0  0  0  0  0  0  0  0  0  0
    5.7718   -0.8146    0.0000 F   0  0  0  0  0  0  0  0  0  0  0  0
    6.5981   -0.8298    0.0000 F   0  0  0  0  0  0  0  0  0  0  0  0
    6.5981    1.1702    0.0000 F   0  0  0  0  0  0  0  0  0  0  0  0
    4.9401   -0.7695    0.0000 F   0  0  0  0  0  0  0  0  0  0  0  0
    7.5981   -0.8298    0.0000 F   0  0  0  0  0  0  0  0  0  0  0  0
    7.5981    1.1702    0.0000 F   0  0  0  0  0  0  0  0  0  0  0  0
    8.5981    1.1702    0.0000 F   0  0  0  0  0  0  0  0  0  0  0  0
    2.9660    0.3130    0.0000 F   0  0  0  0  0  0  0  0  0  0  0  0
    4.2321   -1.1958    0.0000 F   0  0  0  0  0  0  0  0  0  0  0  0
    4.2508    2.1398    0.0000 F   0  0  0  0  0  0  0  0  0  0  0  0
    3.4396    0.9814    0.0000 F   0  0  0  0  0  0  0  0  0  0  0  0
    5.1905    1.7978    0.0000 F   0  0  0  0  0  0  0  0  0  0  0  0
   10.3301    1.1702    0.0000 F   0  0  0  0  0  0  0  0  0  0  0  0
    9.9641   -0.1958    0.0000 F   0  0  0  0  0  0  0  0  0  0  0  0
    9.4641    1.6702    0.0000 F   0  0  0  0  0  0  0  0  0  0  0  0
    9.2821   -1.7092    0.0000 F   0  0  0  0  0  0  0  0  0  0  0  0
    9.9249   -0.9431    0.0000 F   0  0  0  0  0  0  0  0  0  0  0  0
    8.2973   -1.5355    0.0000 F   0  0  0  0  0  0  0  0  0  0  0  0
    2.8660   -1.8298    0.0000 O   0  0  0  0  0  0  0  0  0  0  0  0
    2.0000   -0.3298    0.0000 O   0  0  0  0  0  0  0  0  0  0  0  0
    5.5981    0.1702    0.0000 C   0  0  0  0  0  0  0  0  0  0  0  0
    6.5981    0.1702    0.0000 C   0  0  0  0  0  0  0  0  0  0  0  0
    4.5981    0.1702    0.0000 C   0  0  3  0  0  0  0  0  0  0  0  0
    7.5981    0.1702    0.0000 C   0  0  0  0  0  0  0  0  0  0  0  0
    8.5981    0.1702    0.0000 C   0  0  0  0  0  0  0  0  0  0  0  0
    3.7321   -0.3298    0.0000 C   0  0  0  0  0  0  0  0  0  0  0  0
    4.4244    1.1550    0.0000 C   0  0  0  0  0  0  0  0  0  0  0  0
    9.4641    0.6702    0.0000 C   0  0  0  0  0  0  0  0  0  0  0  0
    8.9401   -0.7695    0.0000 C   0  0  0  0  0  0  0  0  0  0  0  0
    2.8660   -0.8298    0.0000 C   0  0  0  0  0  0  0  0  0  0  0  0
    2.3291   -2.1398    0.0000 H   0  0  0  0  0  0  0  0  0  0  0  0
  1 22  1  0  0  0  0
  2 22  1  0  0  0  0
  3 23  1  0  0  0  0
  4 23  1  0  0  0  0
  5 24  1  0  0  0  0
  6 25  1  0  0  0  0
  7 25  1  0  0  0  0
  8 26  1  0  0  0  0
  9 27  1  0  0  0  0
 10 27  1  0  0  0  0
 11 28  1  0  0  0  0
 12 28  1  0  0  0  0
 13 28  1  0  0  0  0
 14 29  1  0  0  0  0
 15 29  1  0  0  0  0
 16 29  1  0  0  0  0
 17 30  1  0  0  0  0
 18 30  1  0  0  0  0
 19 30  1  0  0  0  0
 20 31  1  0  0  0  0
 20 32  1  0  0  0  0
 21 31  2  0  0  0  0
 22 23  1  0  0  0  0
 22 24  1  0  0  0  0
 23 25  1  0  0  0  0
 24 27  1  0  0  0  0
 24 28  1  0  0  0  0
 25 26  1  0  0  0  0
 26 29  1  0  0  0  0
 26 30  1  0  0  0  0
 27 31  1  0  0  0  0
M  END
> <PUBCHEM_COMPOUND_CID>
2776093

> <PUBCHEM_COMPOUND_CANONICALIZED>
1

> <PUBCHEM_CACTVS_COMPLEXITY>
682

> <PUBCHEM_CACTVS_HBOND_ACCEPTOR>
21

> <PUBCHEM_CACTVS_HBOND_DONOR>
1

> <PUBCHEM_CACTVS_ROTATABLE_BOND>
6

> <PUBCHEM_CACTVS_SUBSKEYS>
AAADcQBwMcAAAAAAAAAAAAAAAAAAAAAAAAAAAAAAAAAAAAAAAAAACwAACAAADAAAgBAACAAAAgAIAACQCAAAAAAAAAAAAAEAAAAAABIAAAAAQAAEAAAAAAGIyOCOAAAAAAAAAAAAAAAAAAAAAAAAAAAAAA==

> <PUBCHEM_IUPAC_OPENEYE_NAME>
2,2,3,4,4,5,5,6,6,7,8,8,8-tridecafluoro-3,7-bis(trifluoromethyl)octanoic acid

> <PUBCHEM_IUPAC_CAS_NAME>
2,2,3,4,4,5,5,6,6,7,8,8,8-tridecafluoro-3,7-bis(trifluoromethyl)octanoic acid

> <PUBCHEM_IUPAC_NAME_MARKUP>
2,2,3,4,4,5,5,6,6,7,8,8,8-tridecafluoro-3,7-bis(trifluoromethyl)octanoic acid

> <PUBCHEM_IUPAC_NAME>
2,2,3,4,4,5,5,6,6,7,8,8,8-tridecafluoro-3,7-bis(trifluoromethyl)octanoic acid

> <PUBCHEM_IUPAC_SYSTEMATIC_NAME>
2,2,3,4,4,5,5,6,6,7,8,8,8-tridecakis(fluoranyl)-3,7-bis(trifluoromethyl)octanoic acid

> <PUBCHEM_IUPAC_TRADITIONAL_NAME>
2,2,3,4,4,5,5,6,6,7,8,8,8-tridecafluoro-3,7-bis(trifluoromethyl)caprylic acid

> <PUBCHEM_IUPAC_INCHI>
InChI=1S/C10HF19O2/c11-2(12,1(30)31)3(13,8(21,22)23)5(15,16)7(19,20)6(17,18)4(14,9(24,25)26)10(27,28)29/h(H,30,31)

> <PUBCHEM_IUPAC_INCHIKEY>
KZUSAXRVIONPJU-UHFFFAOYSA-N

> <PUBCHEM_XLOGP3_AA>
6.3

> <PUBCHEM_EXACT_MASS>
513.9673143

> <PUBCHEM_MOLECULAR_FORMULA>
C10HF19O2

> <PUBCHEM_MOLECULAR_WEIGHT>
514.08

> <PUBCHEM_SMILES>
C(=O)(C(C(C(C(C(C(C(F)(F)F)(C(F)(F)F)F)(F)F)(F)F)(F)F)(C(F)(F)F)F)(F)F)O

> <PUBCHEM_CONNECTIVITY_SMILES>
C(=O)(C(C(C(C(C(C(C(F)(F)F)(C(F)(F)F)F)(F)F)(F)F)(F)F)(C(F)(F)F)F)(F)F)O

> <PUBCHEM_CACTVS_TPSA>
37.3

> <PUBCHEM_MONOISOTOPIC_WEIGHT>
513.9673143

> <PUBCHEM_TOTAL_CHARGE>
0

> <PUBCHEM_HEAVY_ATOM_COUNT>
31

> <PUBCHEM_ATOM_DEF_STEREO_COUNT>
0

> <PUBCHEM_ATOM_UDEF_STEREO_COUNT>
1

> <PUBCHEM_BOND_DEF_STEREO_COUNT>
0

> <PUBCHEM_BOND_UDEF_STEREO_COUNT>
0

> <PUBCHEM_ISOTOPIC_ATOM_COUNT>
0

> <PUBCHEM_COMPONENT_COUNT>
1

> <PUBCHEM_CACTVS_TAUTO_COUNT>
-1

> <PUBCHEM_COORDINATE_TYPE>
1
5
255

> <PUBCHEM_BONDANNOTATIONS>
24  5  3

$$$$
