2778677
  -OEChem-05122608202D

 28 27  0     0  0  0  0  0  0999 V2000
    9.9651   -1.0490    0.0000 F   0  0  0  0  0  0  0  0  0  0  0  0
    8.9651    0.6830    0.0000 F   0  0  0  0  0  0  0  0  0  0  0  0
    9.8312    1.1830    0.0000 F   0  0  0  0  0  0  0  0  0  0  0  0
   10.8312   -0.5490    0.0000 F   0  0  0  0  0  0  0  0  0  0  0  0
    8.0991    0.1830    0.0000 F   0  0  0  0  0  0  0  0  0  0  0  0
    9.0991   -1.5490    0.0000 F   0  0  0  0  0  0  0  0  0  0  0  0
    6.3671   -1.5490    0.0000 F   0  0  0  0  0  0  0  0  0  0  0  0
    7.3671    0.1830    0.0000 F   0  0  0  0  0  0  0  0  0  0  0  0
   12.0632    1.3170    0.0000 F   0  0  0  0  0  0  0  0  0  0  0  0
   11.6972   -0.0490    0.0000 F   0  0  0  0  0  0  0  0  0  0  0  0
   10.6972    1.6830    0.0000 F   0  0  0  0  0  0  0  0  0  0  0  0
    5.5010   -1.0490    0.0000 F   0  0  0  0  0  0  0  0  0  0  0  0
    6.5010    0.6830    0.0000 F   0  0  0  0  0  0  0  0  0  0  0  0
    3.7690    0.6830    0.0000 F   0  0  0  0  0  0  0  0  0  0  0  0
    4.7690   -1.0490    0.0000 F   0  0  0  0  0  0  0  0  0  0  0  0
    7.7331   -1.1830    0.0000 O   0  0  0  0  0  0  0  0  0  0  0  0
    5.1350    0.3170    0.0000 O   0  0  0  0  0  0  0  0  0  0  0  0
    2.5369   -0.1830    0.0000 O   0  0  0  0  0  0  0  0  0  0  0  0
    3.4030   -1.6830    0.0000 O   0  0  0  0  0  0  0  0  0  0  0  0
    9.4651   -0.1830    0.0000 C   0  0  0  0  0  0  0  0  0  0  0  0
   10.3312    0.3170    0.0000 C   0  0  0  0  0  0  0  0  0  0  0  0
    8.5991   -0.6830    0.0000 C   0  0  0  0  0  0  0  0  0  0  0  0
    6.8671   -0.6830    0.0000 C   0  0  0  0  0  0  0  0  0  0  0  0
   11.1972    0.8170    0.0000 C   0  0  0  0  0  0  0  0  0  0  0  0
    6.0010   -0.1830    0.0000 C   0  0  0  0  0  0  0  0  0  0  0  0
    4.2690   -0.1830    0.0000 C   0  0  0  0  0  0  0  0  0  0  0  0
    3.4030   -0.6830    0.0000 C   0  0  0  0  0  0  0  0  0  0  0  0
    2.0000   -0.4930    0.0000 H   0  0  0  0  0  0  0  0  0  0  0  0
  1 20  1  0  0  0  0
  2 20  1  0  0  0  0
  3 21  1  0  0  0  0
  4 21  1  0  0  0  0
  5 22  1  0  0  0  0
  6 22  1  0  0  0  0
  7 23  1  0  0  0  0
  8 23  1  0  0  0  0
  9 24  1  0  0  0  0
 10 24  1  0  0  0  0
 11 24  1  0  0  0  0
 12 25  1  0  0  0  0
 13 25  1  0  0  0  0
 14 26  1  0  0  0  0
 15 26  1  0  0  0  0
 16 22  1  0  0  0  0
 16 23  1  0  0  0  0
 17 25  1  0  0  0  0
 17 26  1  0  0  0  0
 18 27  1  0  0  0  0
 18 28  1  0  0  0  0
 19 27  2  0  0  0  0
 20 21  1  0  0  0  0
 20 22  1  0  0  0  0
 21 24  1  0  0  0  0
 23 25  1  0  0  0  0
 26 27  1  0  0  0  0
M  END
> <PUBCHEM_COMPOUND_CID>
2778677

> <PUBCHEM_COMPOUND_CANONICALIZED>
1

> <PUBCHEM_CACTVS_COMPLEXITY>
565

> <PUBCHEM_CACTVS_HBOND_ACCEPTOR>
19

> <PUBCHEM_CACTVS_HBOND_DONOR>
1

> <PUBCHEM_CACTVS_ROTATABLE_BOND>
8

> <PUBCHEM_CACTVS_SUBSKEYS>
AAADcQBwOcAAAAAAAAAAAAAAAAAAAAAAAAAAAAAAAAAAAAAAAAAACwAACAAACAAAgBAACAAABgAIAACQCAIAAAAAAAAAAABAAAABAAAAAAQCAAAEAAADAAAAAAAAAAAAAAAAAAAAAAAAAAAAAAAAAAAAAA==

> <PUBCHEM_IUPAC_OPENEYE_NAME>
2,2-difluoro-2-[1,1,2,2-tetrafluoro-2-(1,1,2,2,3,3,4,4,4-nonafluorobutoxy)ethoxy]acetic acid

> <PUBCHEM_IUPAC_CAS_NAME>
2,2-difluoro-2-[1,1,2,2-tetrafluoro-2-(1,1,2,2,3,3,4,4,4-nonafluorobutoxy)ethoxy]acetic acid

> <PUBCHEM_IUPAC_NAME_MARKUP>
2,2-difluoro-2-[1,1,2,2-tetrafluoro-2-(1,1,2,2,3,3,4,4,4-nonafluorobutoxy)ethoxy]acetic acid

> <PUBCHEM_IUPAC_NAME>
2,2-difluoro-2-[1,1,2,2-tetrafluoro-2-(1,1,2,2,3,3,4,4,4-nonafluorobutoxy)ethoxy]acetic acid

> <PUBCHEM_IUPAC_SYSTEMATIC_NAME>
2,2-bis(fluoranyl)-2-[1,1,2,2-tetrakis(fluoranyl)-2-[1,1,2,2,3,3,4,4,4-nonakis(fluoranyl)butoxy]ethoxy]ethanoic acid

> <PUBCHEM_IUPAC_TRADITIONAL_NAME>
2,2-difluoro-2-[1,1,2,2-tetrafluoro-2-(1,1,2,2,3,3,4,4,4-nonafluorobutoxy)ethoxy]acetic acid

> <PUBCHEM_IUPAC_INCHI>
InChI=1S/C8HF15O4/c9-2(10,1(24)25)26-7(20,21)8(22,23)27-6(18,19)4(13,14)3(11,12)5(15,16)17/h(H,24,25)

> <PUBCHEM_IUPAC_INCHIKEY>
PPSAKBBLKCJDCR-UHFFFAOYSA-N

> <PUBCHEM_XLOGP3_AA>
5

> <PUBCHEM_EXACT_MASS>
445.9635309

> <PUBCHEM_MOLECULAR_FORMULA>
C8HF15O4

> <PUBCHEM_MOLECULAR_WEIGHT>
446.07

> <PUBCHEM_SMILES>
C(=O)(C(OC(C(OC(C(C(C(F)(F)F)(F)F)(F)F)(F)F)(F)F)(F)F)(F)F)O

> <PUBCHEM_CONNECTIVITY_SMILES>
C(=O)(C(OC(C(OC(C(C(C(F)(F)F)(F)F)(F)F)(F)F)(F)F)(F)F)(F)F)O

> <PUBCHEM_CACTVS_TPSA>
55.8

> <PUBCHEM_MONOISOTOPIC_WEIGHT>
445.9635309

> <PUBCHEM_TOTAL_CHARGE>
0

> <PUBCHEM_HEAVY_ATOM_COUNT>
27

> <PUBCHEM_ATOM_DEF_STEREO_COUNT>
0

> <PUBCHEM_ATOM_UDEF_STEREO_COUNT>
0

> <PUBCHEM_BOND_DEF_STEREO_COUNT>
0

> <PUBCHEM_BOND_UDEF_STEREO_COUNT>
0

> <PUBCHEM_ISOTOPIC_ATOM_COUNT>
0

> <PUBCHEM_COMPONENT_COUNT>
1

> <PUBCHEM_CACTVS_TAUTO_COUNT>
-1

> <PUBCHEM_COORDINATE_TYPE>
1
5
255

$$$$
