2782393
  -OEChem-05122608272D

 19 18  0     0  0  0  0  0  0999 V2000
    6.5010   -1.1830    0.0000 F   0  0  0  0  0  0  0  0  0  0  0  0
    5.5010    0.5490    0.0000 F   0  0  0  0  0  0  0  0  0  0  0  0
    6.3671    1.0490    0.0000 F   0  0  0  0  0  0  0  0  0  0  0  0
    7.3671   -0.6830    0.0000 F   0  0  0  0  0  0  0  0  0  0  0  0
    3.7690   -1.1830    0.0000 F   0  0  0  0  0  0  0  0  0  0  0  0
    4.7690    0.5490    0.0000 F   0  0  0  0  0  0  0  0  0  0  0  0
    9.4651   -0.3170    0.0000 F   0  0  0  0  0  0  0  0  0  0  0  0
    9.0991    1.0490    0.0000 F   0  0  0  0  0  0  0  0  0  0  0  0
    8.0991   -0.6830    0.0000 F   0  0  0  0  0  0  0  0  0  0  0  0
    5.1350   -0.8170    0.0000 O   0  0  0  0  0  0  0  0  0  0  0  0
    7.7331    0.6830    0.0000 O   0  0  0  0  0  0  0  0  0  0  0  0
    2.5369   -0.3170    0.0000 O   0  0  0  0  0  0  0  0  0  0  0  0
    3.4030    1.1830    0.0000 O   0  0  0  0  0  0  0  0  0  0  0  0
    6.0010   -0.3170    0.0000 C   0  0  0  0  0  0  0  0  0  0  0  0
    6.8671    0.1830    0.0000 C   0  0  0  0  0  0  0  0  0  0  0  0
    4.2690   -0.3170    0.0000 C   0  0  0  0  0  0  0  0  0  0  0  0
    8.5991    0.1830    0.0000 C   0  0  0  0  0  0  0  0  0  0  0  0
    3.4030    0.1830    0.0000 C   0  0  0  0  0  0  0  0  0  0  0  0
    2.0000   -0.0070    0.0000 H   0  0  0  0  0  0  0  0  0  0  0  0
  1 14  1  0  0  0  0
  2 14  1  0  0  0  0
  3 15  1  0  0  0  0
  4 15  1  0  0  0  0
  5 16  1  0  0  0  0
  6 16  1  0  0  0  0
  7 17  1  0  0  0  0
  8 17  1  0  0  0  0
  9 17  1  0  0  0  0
 10 14  1  0  0  0  0
 10 16  1  0  0  0  0
 11 15  1  0  0  0  0
 11 17  1  0  0  0  0
 12 18  1  0  0  0  0
 12 19  1  0  0  0  0
 13 18  2  0  0  0  0
 14 15  1  0  0  0  0
 16 18  1  0  0  0  0
M  END
> <PUBCHEM_COMPOUND_CID>
2782393

> <PUBCHEM_COMPOUND_CANONICALIZED>
1

> <PUBCHEM_CACTVS_COMPLEXITY>
321

> <PUBCHEM_CACTVS_HBOND_ACCEPTOR>
13

> <PUBCHEM_CACTVS_HBOND_DONOR>
1

> <PUBCHEM_CACTVS_ROTATABLE_BOND>
5

> <PUBCHEM_CACTVS_SUBSKEYS>
AAADcQBgOcAAAAAAAAAAAAAAAAAAAAAAAAAAAAAAAAAAAAAAAAAACwAACAAAAAAAgBAACAAABgAIAACQCAIAAAAAAAAAAABAAAABAAAAAAQCAAAAAAADAAAAAAAAAAAAAAAAAAAAAAAAAAAAAAAAAAAAAA==

> <PUBCHEM_IUPAC_OPENEYE_NAME>
2,2-difluoro-2-[1,1,2,2-tetrafluoro-2-(trifluoromethoxy)ethoxy]acetic acid

> <PUBCHEM_IUPAC_CAS_NAME>
2,2-difluoro-2-[1,1,2,2-tetrafluoro-2-(trifluoromethoxy)ethoxy]acetic acid

> <PUBCHEM_IUPAC_NAME_MARKUP>
2,2-difluoro-2-[1,1,2,2-tetrafluoro-2-(trifluoromethoxy)ethoxy]acetic acid

> <PUBCHEM_IUPAC_NAME>
2,2-difluoro-2-[1,1,2,2-tetrafluoro-2-(trifluoromethoxy)ethoxy]acetic acid

> <PUBCHEM_IUPAC_SYSTEMATIC_NAME>
2,2-bis(fluoranyl)-2-[1,1,2,2-tetrakis(fluoranyl)-2-(trifluoromethyloxy)ethoxy]ethanoic acid

> <PUBCHEM_IUPAC_TRADITIONAL_NAME>
2,2-difluoro-2-[1,1,2,2-tetrafluoro-2-(trifluoromethoxy)ethoxy]acetic acid

> <PUBCHEM_IUPAC_INCHI>
InChI=1S/C5HF9O4/c6-2(7,1(15)16)17-3(8,9)4(10,11)18-5(12,13)14/h(H,15,16)

> <PUBCHEM_IUPAC_INCHIKEY>
PPWRLPJIHGWGFH-UHFFFAOYSA-N

> <PUBCHEM_XLOGP3_AA>
3

> <PUBCHEM_EXACT_MASS>
295.97311197

> <PUBCHEM_MOLECULAR_FORMULA>
C5HF9O4

> <PUBCHEM_MOLECULAR_WEIGHT>
296.04

> <PUBCHEM_SMILES>
C(=O)(C(OC(C(OC(F)(F)F)(F)F)(F)F)(F)F)O

> <PUBCHEM_CONNECTIVITY_SMILES>
C(=O)(C(OC(C(OC(F)(F)F)(F)F)(F)F)(F)F)O

> <PUBCHEM_CACTVS_TPSA>
55.8

> <PUBCHEM_MONOISOTOPIC_WEIGHT>
295.97311197

> <PUBCHEM_TOTAL_CHARGE>
0

> <PUBCHEM_HEAVY_ATOM_COUNT>
18

> <PUBCHEM_ATOM_DEF_STEREO_COUNT>
0

> <PUBCHEM_ATOM_UDEF_STEREO_COUNT>
0

> <PUBCHEM_BOND_DEF_STEREO_COUNT>
0

> <PUBCHEM_BOND_UDEF_STEREO_COUNT>
0

> <PUBCHEM_ISOTOPIC_ATOM_COUNT>
0

> <PUBCHEM_COMPONENT_COUNT>
1

> <PUBCHEM_CACTVS_TAUTO_COUNT>
-1

> <PUBCHEM_COORDINATE_TYPE>
1
5
255

$$$$
