2783376
  -OEChem-05122609172D

 32 31  0     0  0  0  0  0  0999 V2000
    6.8301   -0.6830    0.0000 F   0  0  0  0  0  0  0  0  0  0  0  0
    5.8301    1.0490    0.0000 F   0  0  0  0  0  0  0  0  0  0  0  0
    4.9641    0.5490    0.0000 F   0  0  0  0  0  0  0  0  0  0  0  0
    5.9641   -1.1830    0.0000 F   0  0  0  0  0  0  0  0  0  0  0  0
    7.6962   -0.1830    0.0000 F   0  0  0  0  0  0  0  0  0  0  0  0
    6.6962    1.5490    0.0000 F   0  0  0  0  0  0  0  0  0  0  0  0
    4.0981    0.0490    0.0000 F   0  0  0  0  0  0  0  0  0  0  0  0
    5.0981   -1.6830    0.0000 F   0  0  0  0  0  0  0  0  0  0  0  0
    8.5622    0.3170    0.0000 F   0  0  0  0  0  0  0  0  0  0  0  0
    7.5622    2.0490    0.0000 F   0  0  0  0  0  0  0  0  0  0  0  0
    3.2321   -0.4510    0.0000 F   0  0  0  0  0  0  0  0  0  0  0  0
    4.2321   -2.1830    0.0000 F   0  0  0  0  0  0  0  0  0  0  0  0
    2.0000   -2.3170    0.0000 F   0  0  0  0  0  0  0  0  0  0  0  0
    2.3660   -0.9510    0.0000 F   0  0  0  0  0  0  0  0  0  0  0  0
    3.3660   -2.6830    0.0000 F   0  0  0  0  0  0  0  0  0  0  0  0
   11.5263    1.1830    0.0000 O   0  0  0  0  0  0  0  0  0  0  0  0
   10.6603    2.6830    0.0000 O   0  0  0  0  0  0  0  0  0  0  0  0
    6.3301    0.1830    0.0000 C   0  0  0  0  0  0  0  0  0  0  0  0
    5.4641   -0.3170    0.0000 C   0  0  0  0  0  0  0  0  0  0  0  0
    7.1962    0.6830    0.0000 C   0  0  0  0  0  0  0  0  0  0  0  0
    4.5981   -0.8170    0.0000 C   0  0  0  0  0  0  0  0  0  0  0  0
    8.0622    1.1830    0.0000 C   0  0  0  0  0  0  0  0  0  0  0  0
    3.7321   -1.3170    0.0000 C   0  0  0  0  0  0  0  0  0  0  0  0
    8.9282    1.6830    0.0000 C   0  0  0  0  0  0  0  0  0  0  0  0
    9.7942    1.1830    0.0000 C   0  0  0  0  0  0  0  0  0  0  0  0
    2.8660   -1.8170    0.0000 C   0  0  0  0  0  0  0  0  0  0  0  0
   10.6603    1.6830    0.0000 C   0  0  0  0  0  0  0  0  0  0  0  0
    9.3267    2.1580    0.0000 H   0  0  0  0  0  0  0  0  0  0  0  0
    8.5297    2.1580    0.0000 H   0  0  0  0  0  0  0  0  0  0  0  0
    9.3957    0.7081    0.0000 H   0  0  0  0  0  0  0  0  0  0  0  0
   10.1928    0.7081    0.0000 H   0  0  0  0  0  0  0  0  0  0  0  0
   12.0632    1.4930    0.0000 H   0  0  0  0  0  0  0  0  0  0  0  0
  1 18  1  0  0  0  0
  2 18  1  0  0  0  0
  3 19  1  0  0  0  0
  4 19  1  0  0  0  0
  5 20  1  0  0  0  0
  6 20  1  0  0  0  0
  7 21  1  0  0  0  0
  8 21  1  0  0  0  0
  9 22  1  0  0  0  0
 10 22  1  0  0  0  0
 11 23  1  0  0  0  0
 12 23  1  0  0  0  0
 13 26  1  0  0  0  0
 14 26  1  0  0  0  0
 15 26  1  0  0  0  0
 16 27  1  0  0  0  0
 16 32  1  0  0  0  0
 17 27  2  0  0  0  0
 18 19  1  0  0  0  0
 18 20  1  0  0  0  0
 19 21  1  0  0  0  0
 20 22  1  0  0  0  0
 21 23  1  0  0  0  0
 22 24  1  0  0  0  0
 23 26  1  0  0  0  0
 24 25  1  0  0  0  0
 24 28  1  0  0  0  0
 24 29  1  0  0  0  0
 25 27  1  0  0  0  0
 25 30  1  0  0  0  0
 25 31  1  0  0  0  0
M  END
> <PUBCHEM_COMPOUND_CID>
2783376

> <PUBCHEM_COMPOUND_CANONICALIZED>
1

> <PUBCHEM_CACTVS_COMPLEXITY>
561

> <PUBCHEM_CACTVS_HBOND_ACCEPTOR>
17

> <PUBCHEM_CACTVS_HBOND_DONOR>
1

> <PUBCHEM_CACTVS_ROTATABLE_BOND>
8

> <PUBCHEM_CACTVS_SUBSKEYS>
AAADcYBwMcAAAAAAAAAAAAAAAAAAAAAAAAAAAAAAAAAAAAAAAAAAGwAACAAACACAgBAACAAAAgAIAACQCAAAAAAAAAAAAAEAAAAAABIAAAAAQAAEAAAAAAGIyKCAAAAAAAAAAAAAAAAAAAAAAAAAAAAAAA==

> <PUBCHEM_IUPAC_OPENEYE_NAME>
4,4,5,5,6,6,7,7,8,8,9,9,10,10,10-pentadecafluorodecanoic acid

> <PUBCHEM_IUPAC_CAS_NAME>
4,4,5,5,6,6,7,7,8,8,9,9,10,10,10-pentadecafluorodecanoic acid

> <PUBCHEM_IUPAC_NAME_MARKUP>
4,4,5,5,6,6,7,7,8,8,9,9,10,10,10-pentadecafluorodecanoic acid

> <PUBCHEM_IUPAC_NAME>
4,4,5,5,6,6,7,7,8,8,9,9,10,10,10-pentadecafluorodecanoic acid

> <PUBCHEM_IUPAC_SYSTEMATIC_NAME>
4,4,5,5,6,6,7,7,8,8,9,9,10,10,10-pentadecakis(fluoranyl)decanoic acid

> <PUBCHEM_IUPAC_TRADITIONAL_NAME>
4,4,5,5,6,6,7,7,8,8,9,9,10,10,10-pentadecafluorocapric acid

> <PUBCHEM_IUPAC_INCHI>
InChI=1S/C10H5F15O2/c11-4(12,2-1-3(26)27)5(13,14)6(15,16)7(17,18)8(19,20)9(21,22)10(23,24)25/h1-2H2,(H,26,27)

> <PUBCHEM_IUPAC_INCHIKEY>
HLBRGVKRZQSQHB-UHFFFAOYSA-N

> <PUBCHEM_XLOGP3_AA>
5.2

> <PUBCHEM_EXACT_MASS>
442.0050018

> <PUBCHEM_MOLECULAR_FORMULA>
C10H5F15O2

> <PUBCHEM_MOLECULAR_WEIGHT>
442.12

> <PUBCHEM_SMILES>
C(CC(C(C(C(C(C(C(F)(F)F)(F)F)(F)F)(F)F)(F)F)(F)F)(F)F)C(=O)O

> <PUBCHEM_CONNECTIVITY_SMILES>
C(CC(C(C(C(C(C(C(F)(F)F)(F)F)(F)F)(F)F)(F)F)(F)F)(F)F)C(=O)O

> <PUBCHEM_CACTVS_TPSA>
37.3

> <PUBCHEM_MONOISOTOPIC_WEIGHT>
442.0050018

> <PUBCHEM_TOTAL_CHARGE>
0

> <PUBCHEM_HEAVY_ATOM_COUNT>
27

> <PUBCHEM_ATOM_DEF_STEREO_COUNT>
0

> <PUBCHEM_ATOM_UDEF_STEREO_COUNT>
0

> <PUBCHEM_BOND_DEF_STEREO_COUNT>
0

> <PUBCHEM_BOND_UDEF_STEREO_COUNT>
0

> <PUBCHEM_ISOTOPIC_ATOM_COUNT>
0

> <PUBCHEM_COMPONENT_COUNT>
1

> <PUBCHEM_CACTVS_TAUTO_COUNT>
-1

> <PUBCHEM_COORDINATE_TYPE>
1
5
255

$$$$
