28021
  -OEChem-05122609422D

 29 28  0     1  0  0  0  0  0999 V2000
    2.8660   -0.3170    0.0000 C   0  0  0  0  0  0  0  0  0  0  0  0
    3.7321    0.1830    0.0000 C   0  0  3  0  0  0  0  0  0  0  0  0
    4.5981   -0.3170    0.0000 C   0  0  0  0  0  0  0  0  0  0  0  0
    2.0000   -0.8170    0.0000 C   0  0  0  0  0  0  0  0  0  0  0  0
    2.3660    0.5490    0.0000 C   0  0  0  0  0  0  0  0  0  0  0  0
    3.3660   -1.1830    0.0000 C   0  0  0  0  0  0  0  0  0  0  0  0
    3.7321    1.1830    0.0000 C   0  0  0  0  0  0  0  0  0  0  0  0
    5.4641    0.1830    0.0000 C   0  0  0  0  0  0  0  0  0  0  0  0
    6.3301   -0.3170    0.0000 C   0  0  0  0  0  0  0  0  0  0  0  0
    4.2690    0.4930    0.0000 H   0  0  0  0  0  0  0  0  0  0  0  0
    4.1996   -0.7919    0.0000 H   0  0  0  0  0  0  0  0  0  0  0  0
    4.9966   -0.7919    0.0000 H   0  0  0  0  0  0  0  0  0  0  0  0
    1.6900   -0.2801    0.0000 H   0  0  0  0  0  0  0  0  0  0  0  0
    1.4631   -1.1270    0.0000 H   0  0  0  0  0  0  0  0  0  0  0  0
    2.3100   -1.3539    0.0000 H   0  0  0  0  0  0  0  0  0  0  0  0
    2.9030    0.8590    0.0000 H   0  0  0  0  0  0  0  0  0  0  0  0
    2.0560    1.0860    0.0000 H   0  0  0  0  0  0  0  0  0  0  0  0
    1.8291    0.2390    0.0000 H   0  0  0  0  0  0  0  0  0  0  0  0
    2.8291   -1.4930    0.0000 H   0  0  0  0  0  0  0  0  0  0  0  0
    3.6760   -1.7200    0.0000 H   0  0  0  0  0  0  0  0  0  0  0  0
    3.9030   -0.8730    0.0000 H   0  0  0  0  0  0  0  0  0  0  0  0
    4.3521    1.1830    0.0000 H   0  0  0  0  0  0  0  0  0  0  0  0
    3.7321    1.8030    0.0000 H   0  0  0  0  0  0  0  0  0  0  0  0
    3.1121    1.1830    0.0000 H   0  0  0  0  0  0  0  0  0  0  0  0
    5.8626    0.6580    0.0000 H   0  0  0  0  0  0  0  0  0  0  0  0
    5.0656    0.6580    0.0000 H   0  0  0  0  0  0  0  0  0  0  0  0
    6.0201   -0.8539    0.0000 H   0  0  0  0  0  0  0  0  0  0  0  0
    6.8671   -0.6270    0.0000 H   0  0  0  0  0  0  0  0  0  0  0  0
    6.6401    0.2199    0.0000 H   0  0  0  0  0  0  0  0  0  0  0  0
  1  2  1  0  0  0  0
  1  4  1  0  0  0  0
  1  5  1  0  0  0  0
  1  6  1  0  0  0  0
  2  3  1  0  0  0  0
  2  7  1  0  0  0  0
  2 10  1  0  0  0  0
  3  8  1  0  0  0  0
  3 11  1  0  0  0  0
  3 12  1  0  0  0  0
  4 13  1  0  0  0  0
  4 14  1  0  0  0  0
  4 15  1  0  0  0  0
  5 16  1  0  0  0  0
  5 17  1  0  0  0  0
  5 18  1  0  0  0  0
  6 19  1  0  0  0  0
  6 20  1  0  0  0  0
  6 21  1  0  0  0  0
  7 22  1  0  0  0  0
  7 23  1  0  0  0  0
  7 24  1  0  0  0  0
  8  9  1  0  0  0  0
  8 25  1  0  0  0  0
  8 26  1  0  0  0  0
  9 27  1  0  0  0  0
  9 28  1  0  0  0  0
  9 29  1  0  0  0  0
M  END
> <PUBCHEM_COMPOUND_CID>
28021

> <PUBCHEM_COMPOUND_CANONICALIZED>
1

> <PUBCHEM_CACTVS_COMPLEXITY>
66.6

> <PUBCHEM_CACTVS_HBOND_ACCEPTOR>
0

> <PUBCHEM_CACTVS_HBOND_DONOR>
0

> <PUBCHEM_CACTVS_ROTATABLE_BOND>
3

> <PUBCHEM_CACTVS_SUBSKEYS>
AAADceBwAAAAAAAAAAAAAAAAAAAAAAAAAAAAAAAAAAAAAAAAAAAAGAAAAAAADwCAAAACAAAAAAAAAAAAAAAAAAAAAAAAAAAAAAAAAAIAAAAAAAAAAAAAAAEAAAAPgAAAAAAAAAAAAAAAAAAAAAAAAAAAAA==

> <PUBCHEM_IUPAC_OPENEYE_NAME>
2,2,3-trimethylhexane

> <PUBCHEM_IUPAC_CAS_NAME>
2,2,3-trimethylhexane

> <PUBCHEM_IUPAC_NAME_MARKUP>
2,2,3-trimethylhexane

> <PUBCHEM_IUPAC_NAME>
2,2,3-trimethylhexane

> <PUBCHEM_IUPAC_SYSTEMATIC_NAME>
2,2,3-trimethylhexane

> <PUBCHEM_IUPAC_TRADITIONAL_NAME>
2,2,3-trimethylhexane

> <PUBCHEM_IUPAC_INCHI>
InChI=1S/C9H20/c1-6-7-8(2)9(3,4)5/h8H,6-7H2,1-5H3

> <PUBCHEM_IUPAC_INCHIKEY>
CBVFSZDQEHBJEQ-UHFFFAOYSA-N

> <PUBCHEM_XLOGP3_AA>
4.4

> <PUBCHEM_EXACT_MASS>
128.156500638

> <PUBCHEM_MOLECULAR_FORMULA>
C9H20

> <PUBCHEM_MOLECULAR_WEIGHT>
128.25

> <PUBCHEM_SMILES>
CCCC(C)C(C)(C)C

> <PUBCHEM_CONNECTIVITY_SMILES>
CCCC(C)C(C)(C)C

> <PUBCHEM_CACTVS_TPSA>
0

> <PUBCHEM_MONOISOTOPIC_WEIGHT>
128.156500638

> <PUBCHEM_TOTAL_CHARGE>
0

> <PUBCHEM_HEAVY_ATOM_COUNT>
9

> <PUBCHEM_ATOM_DEF_STEREO_COUNT>
0

> <PUBCHEM_ATOM_UDEF_STEREO_COUNT>
1

> <PUBCHEM_BOND_DEF_STEREO_COUNT>
0

> <PUBCHEM_BOND_UDEF_STEREO_COUNT>
0

> <PUBCHEM_ISOTOPIC_ATOM_COUNT>
0

> <PUBCHEM_COMPONENT_COUNT>
1

> <PUBCHEM_CACTVS_TAUTO_COUNT>
-1

> <PUBCHEM_COORDINATE_TYPE>
1
5
255

> <PUBCHEM_BONDANNOTATIONS>
2  7  3

$$$$
