281839
  -OEChem-05122608282D

 58 59  0     1  0  0  0  0  0999 V2000
    7.1962    2.2327    0.0000 C   0  0  3  0  0  0  0  0  0  0  0  0
    7.1962    3.2327    0.0000 C   0  0  3  0  0  0  0  0  0  0  0  0
    5.4641    2.2327    0.0000 C   0  0  3  0  0  0  0  0  0  0  0  0
    6.3301    1.7327    0.0000 C   0  0  0  0  0  0  0  0  0  0  0  0
    5.4641    3.2327    0.0000 C   0  0  3  0  0  0  0  0  0  0  0  0
    6.3301    3.7327    0.0000 C   0  0  0  0  0  0  0  0  0  0  0  0
    8.0901    1.6980    0.0000 C   0  0  0  0  0  0  0  0  0  0  0  0
    8.0901    3.7673    0.0000 C   0  0  0  0  0  0  0  0  0  0  0  0
    8.9962    2.2118    0.0000 C   0  0  3  0  0  0  0  0  0  0  0  0
    8.9962    3.2535    0.0000 C   0  0  0  0  0  0  0  0  0  0  0  0
    4.5981    1.7327    0.0000 C   0  0  0  0  0  0  0  0  0  0  0  0
    4.5981    3.7327    0.0000 C   0  0  0  0  0  0  0  0  0  0  0  0
    9.8602    1.7085    0.0000 C   0  0  0  0  0  0  0  0  0  0  0  0
    4.5981    0.7327    0.0000 C   0  0  0  0  0  0  0  0  0  0  0  0
    3.7320    0.2327    0.0000 C   0  0  0  0  0  0  0  0  0  0  0  0
    3.7320   -0.7673    0.0000 C   0  0  0  0  0  0  0  0  0  0  0  0
    2.8660   -1.2673    0.0000 C   0  0  0  0  0  0  0  0  0  0  0  0
    2.8660   -2.2673    0.0000 C   0  0  0  0  0  0  0  0  0  0  0  0
    2.0000   -2.7673    0.0000 C   0  0  0  0  0  0  0  0  0  0  0  0
    2.0000   -3.7673    0.0000 C   0  0  0  0  0  0  0  0  0  0  0  0
    7.1914    1.6127    0.0000 H   0  0  0  0  0  0  0  0  0  0  0  0
    7.1914    3.8526    0.0000 H   0  0  0  0  0  0  0  0  0  0  0  0
    5.4641    1.6127    0.0000 H   0  0  0  0  0  0  0  0  0  0  0  0
    5.9316    1.2577    0.0000 H   0  0  0  0  0  0  0  0  0  0  0  0
    6.7287    1.2577    0.0000 H   0  0  0  0  0  0  0  0  0  0  0  0
    5.4641    3.8527    0.0000 H   0  0  0  0  0  0  0  0  0  0  0  0
    6.7287    4.2076    0.0000 H   0  0  0  0  0  0  0  0  0  0  0  0
    5.9316    4.2076    0.0000 H   0  0  0  0  0  0  0  0  0  0  0  0
    7.6855    1.2282    0.0000 H   0  0  0  0  0  0  0  0  0  0  0  0
    8.4837    1.2190    0.0000 H   0  0  0  0  0  0  0  0  0  0  0  0
    8.4837    4.2463    0.0000 H   0  0  0  0  0  0  0  0  0  0  0  0
    7.6855    4.2371    0.0000 H   0  0  0  0  0  0  0  0  0  0  0  0
    8.9926    1.5919    0.0000 H   0  0  0  0  0  0  0  0  0  0  0  0
    9.6070    3.1474    0.0000 H   0  0  0  0  0  0  0  0  0  0  0  0
    9.2052    3.8372    0.0000 H   0  0  0  0  0  0  0  0  0  0  0  0
    4.3860    2.3153    0.0000 H   0  0  0  0  0  0  0  0  0  0  0  0
    3.9875    1.6250    0.0000 H   0  0  0  0  0  0  0  0  0  0  0  0
    4.9081    4.2696    0.0000 H   0  0  0  0  0  0  0  0  0  0  0  0
    4.0611    4.0427    0.0000 H   0  0  0  0  0  0  0  0  0  0  0  0
    4.2881    3.1957    0.0000 H   0  0  0  0  0  0  0  0  0  0  0  0
    9.5482    1.1728    0.0000 H   0  0  0  0  0  0  0  0  0  0  0  0
   10.3960    1.3964    0.0000 H   0  0  0  0  0  0  0  0  0  0  0  0
   10.1723    2.2443    0.0000 H   0  0  0  0  0  0  0  0  0  0  0  0
    4.8101    0.1501    0.0000 H   0  0  0  0  0  0  0  0  0  0  0  0
    5.2087    0.8403    0.0000 H   0  0  0  0  0  0  0  0  0  0  0  0
    3.5200    0.8153    0.0000 H   0  0  0  0  0  0  0  0  0  0  0  0
    3.1215    0.1250    0.0000 H   0  0  0  0  0  0  0  0  0  0  0  0
    3.9441   -1.3499    0.0000 H   0  0  0  0  0  0  0  0  0  0  0  0
    4.3426   -0.6597    0.0000 H   0  0  0  0  0  0  0  0  0  0  0  0
    2.6540   -0.6847    0.0000 H   0  0  0  0  0  0  0  0  0  0  0  0
    2.2554   -1.3750    0.0000 H   0  0  0  0  0  0  0  0  0  0  0  0
    3.0781   -2.8499    0.0000 H   0  0  0  0  0  0  0  0  0  0  0  0
    3.4766   -2.1597    0.0000 H   0  0  0  0  0  0  0  0  0  0  0  0
    1.7880   -2.1847    0.0000 H   0  0  0  0  0  0  0  0  0  0  0  0
    1.3894   -2.8750    0.0000 H   0  0  0  0  0  0  0  0  0  0  0  0
    1.3800   -3.7673    0.0000 H   0  0  0  0  0  0  0  0  0  0  0  0
    2.0000   -4.3873    0.0000 H   0  0  0  0  0  0  0  0  0  0  0  0
    2.6200   -3.7673    0.0000 H   0  0  0  0  0  0  0  0  0  0  0  0
  1  2  1  0  0  0  0
  1  4  1  0  0  0  0
  1  7  1  0  0  0  0
  1 21  1  0  0  0  0
  2  6  1  0  0  0  0
  2  8  1  0  0  0  0
  2 22  1  0  0  0  0
  3  4  1  0  0  0  0
  3  5  1  0  0  0  0
  3 11  1  0  0  0  0
  3 23  1  0  0  0  0
  4 24  1  0  0  0  0
  4 25  1  0  0  0  0
  5  6  1  0  0  0  0
  5 12  1  0  0  0  0
  5 26  1  0  0  0  0
  6 27  1  0  0  0  0
  6 28  1  0  0  0  0
  7  9  1  0  0  0  0
  7 29  1  0  0  0  0
  7 30  1  0  0  0  0
  8 10  1  0  0  0  0
  8 31  1  0  0  0  0
  8 32  1  0  0  0  0
  9 10  1  0  0  0  0
  9 13  1  0  0  0  0
  9 33  1  0  0  0  0
 10 34  1  0  0  0  0
 10 35  1  0  0  0  0
 11 14  1  0  0  0  0
 11 36  1  0  0  0  0
 11 37  1  0  0  0  0
 12 38  1  0  0  0  0
 12 39  1  0  0  0  0
 12 40  1  0  0  0  0
 13 41  1  0  0  0  0
 13 42  1  0  0  0  0
 13 43  1  0  0  0  0
 14 15  1  0  0  0  0
 14 44  1  0  0  0  0
 14 45  1  0  0  0  0
 15 16  1  0  0  0  0
 15 46  1  0  0  0  0
 15 47  1  0  0  0  0
 16 17  1  0  0  0  0
 16 48  1  0  0  0  0
 16 49  1  0  0  0  0
 17 18  1  0  0  0  0
 17 50  1  0  0  0  0
 17 51  1  0  0  0  0
 18 19  1  0  0  0  0
 18 52  1  0  0  0  0
 18 53  1  0  0  0  0
 19 20  1  0  0  0  0
 19 54  1  0  0  0  0
 19 55  1  0  0  0  0
 20 56  1  0  0  0  0
 20 57  1  0  0  0  0
 20 58  1  0  0  0  0
M  END
> <PUBCHEM_COMPOUND_CID>
281839

> <PUBCHEM_COMPOUND_CANONICALIZED>
1

> <PUBCHEM_CACTVS_COMPLEXITY>
257

> <PUBCHEM_CACTVS_HBOND_ACCEPTOR>
0

> <PUBCHEM_CACTVS_HBOND_DONOR>
0

> <PUBCHEM_CACTVS_ROTATABLE_BOND>
7

> <PUBCHEM_CACTVS_SUBSKEYS>
AAADcfB4AAAAAAAAAAAAAAAAAAAAAAAAAAAwYAAAAAAAAADAAAAAGAAAAAAADQCAAAACAAAAAAAAAAAAAAAAAAAAAAAAAAAAAAAAAAIAAAAAAAAAAAAAAAEAgMAOgAAAAAAAAACAAAQAACAAAAAAAAAAAA==

> <PUBCHEM_IUPAC_OPENEYE_NAME>
2,6-dimethyl-3-octyl-decalin

> <PUBCHEM_IUPAC_CAS_NAME>
2,6-dimethyl-3-octyl-1,2,3,4,4a,5,6,7,8,8a-decahydronaphthalene

> <PUBCHEM_IUPAC_NAME_MARKUP>
2,6-dimethyl-3-octyl-1,2,3,4,4<I>a</I>,5,6,7,8,8<I>a</I>-decahydronaphthalene

> <PUBCHEM_IUPAC_NAME>
2,6-dimethyl-3-octyl-1,2,3,4,4a,5,6,7,8,8a-decahydronaphthalene

> <PUBCHEM_IUPAC_SYSTEMATIC_NAME>
2,6-dimethyl-3-octyl-1,2,3,4,4a,5,6,7,8,8a-decahydronaphthalene

> <PUBCHEM_IUPAC_TRADITIONAL_NAME>
2,6-dimethyl-3-octyl-decalin

> <PUBCHEM_IUPAC_INCHI>
InChI=1S/C20H38/c1-4-5-6-7-8-9-10-18-15-20-13-16(2)11-12-19(20)14-17(18)3/h16-20H,4-15H2,1-3H3

> <PUBCHEM_IUPAC_INCHIKEY>
WYHUFBHZXGAZJH-UHFFFAOYSA-N

> <PUBCHEM_XLOGP3_AA>
9.2

> <PUBCHEM_EXACT_MASS>
278.297351212

> <PUBCHEM_MOLECULAR_FORMULA>
C20H38

> <PUBCHEM_MOLECULAR_WEIGHT>
278.5

> <PUBCHEM_SMILES>
CCCCCCCCC1CC2CC(CCC2CC1C)C

> <PUBCHEM_CONNECTIVITY_SMILES>
CCCCCCCCC1CC2CC(CCC2CC1C)C

> <PUBCHEM_CACTVS_TPSA>
0

> <PUBCHEM_MONOISOTOPIC_WEIGHT>
278.297351212

> <PUBCHEM_TOTAL_CHARGE>
0

> <PUBCHEM_HEAVY_ATOM_COUNT>
20

> <PUBCHEM_ATOM_DEF_STEREO_COUNT>
0

> <PUBCHEM_ATOM_UDEF_STEREO_COUNT>
5

> <PUBCHEM_BOND_DEF_STEREO_COUNT>
0

> <PUBCHEM_BOND_UDEF_STEREO_COUNT>
0

> <PUBCHEM_ISOTOPIC_ATOM_COUNT>
0

> <PUBCHEM_COMPONENT_COUNT>
1

> <PUBCHEM_CACTVS_TAUTO_COUNT>
-1

> <PUBCHEM_COORDINATE_TYPE>
1
5
255

> <PUBCHEM_BONDANNOTATIONS>
1  7  3
2  8  3
3  11  3
5  12  3
9  13  3

$$$$
