283592
  -OEChem-05122608242D

 38 38  0     0  0  0  0  0  0999 V2000
    2.6200   -2.5981    0.0000 O   0  0  0  0  0  0  0  0  0  0  0  0
    4.6200    0.8660    0.0000 O   0  0  0  0  0  0  0  0  0  0  0  0
    2.6200   -0.8660    0.0000 N   0  0  0  0  0  0  0  0  0  0  0  0
    6.1200    1.7321    0.0000 N   0  0  0  0  0  0  0  0  0  0  0  0
    3.1200    1.7321    0.0000 C   0  0  0  0  0  0  0  0  0  0  0  0
    4.1200    1.7321    0.0000 C   0  0  0  0  0  0  0  0  0  0  0  0
    2.6200    0.8660    0.0000 C   0  0  0  0  0  0  0  0  0  0  0  0
    4.6200    2.5981    0.0000 C   0  0  0  0  0  0  0  0  0  0  0  0
    3.1200   -0.0000    0.0000 C   0  0  0  0  0  0  0  0  0  0  0  0
    5.6200    2.5981    0.0000 C   0  0  0  0  0  0  0  0  0  0  0  0
    4.6200   -0.8660    0.0000 C   0  0  0  0  0  0  0  0  0  0  0  0
    5.6200   -0.8660    0.0000 C   0  0  0  0  0  0  0  0  0  0  0  0
    4.1200   -1.7321    0.0000 C   0  0  0  0  0  0  0  0  0  0  0  0
    6.1200   -0.0000    0.0000 C   0  0  0  0  0  0  0  0  0  0  0  0
    3.1200   -1.7321    0.0000 C   0  0  0  0  0  0  0  0  0  0  0  0
    5.6200    0.8660    0.0000 C   0  0  0  0  0  0  0  0  0  0  0  0
    3.2277    2.3426    0.0000 H   0  0  0  0  0  0  0  0  0  0  0  0
    2.5374    1.9441    0.0000 H   0  0  0  0  0  0  0  0  0  0  0  0
    4.0123    1.1215    0.0000 H   0  0  0  0  0  0  0  0  0  0  0  0
    4.7026    1.5200    0.0000 H   0  0  0  0  0  0  0  0  0  0  0  0
    2.1451    1.2646    0.0000 H   0  0  0  0  0  0  0  0  0  0  0  0
    2.1451    0.4675    0.0000 H   0  0  0  0  0  0  0  0  0  0  0  0
    4.7277    3.2087    0.0000 H   0  0  0  0  0  0  0  0  0  0  0  0
    4.0374    2.8101    0.0000 H   0  0  0  0  0  0  0  0  0  0  0  0
    3.5950   -0.3985    0.0000 H   0  0  0  0  0  0  0  0  0  0  0  0
    3.5950    0.3985    0.0000 H   0  0  0  0  0  0  0  0  0  0  0  0
    6.2026    2.8101    0.0000 H   0  0  0  0  0  0  0  0  0  0  0  0
    5.5123    3.2087    0.0000 H   0  0  0  0  0  0  0  0  0  0  0  0
    4.7277   -0.2554    0.0000 H   0  0  0  0  0  0  0  0  0  0  0  0
    4.0374   -0.6540    0.0000 H   0  0  0  0  0  0  0  0  0  0  0  0
    5.5123   -1.4766    0.0000 H   0  0  0  0  0  0  0  0  0  0  0  0
    6.2026   -1.0781    0.0000 H   0  0  0  0  0  0  0  0  0  0  0  0
    4.0123   -2.3426    0.0000 H   0  0  0  0  0  0  0  0  0  0  0  0
    4.7026   -1.9441    0.0000 H   0  0  0  0  0  0  0  0  0  0  0  0
    6.5950   -0.3985    0.0000 H   0  0  0  0  0  0  0  0  0  0  0  0
    6.5950    0.3985    0.0000 H   0  0  0  0  0  0  0  0  0  0  0  0
    2.0000   -0.8660    0.0000 H   0  0  0  0  0  0  0  0  0  0  0  0
    6.7400    1.7321    0.0000 H   0  0  0  0  0  0  0  0  0  0  0  0
  1 15  2  0  0  0  0
  2 16  2  0  0  0  0
  3  9  1  0  0  0  0
  3 15  1  0  0  0  0
  3 37  1  0  0  0  0
  4 10  1  0  0  0  0
  4 16  1  0  0  0  0
  4 38  1  0  0  0  0
  5  6  1  0  0  0  0
  5  7  1  0  0  0  0
  5 17  1  0  0  0  0
  5 18  1  0  0  0  0
  6  8  1  0  0  0  0
  6 19  1  0  0  0  0
  6 20  1  0  0  0  0
  7  9  1  0  0  0  0
  7 21  1  0  0  0  0
  7 22  1  0  0  0  0
  8 10  1  0  0  0  0
  8 23  1  0  0  0  0
  8 24  1  0  0  0  0
  9 25  1  0  0  0  0
  9 26  1  0  0  0  0
 10 27  1  0  0  0  0
 10 28  1  0  0  0  0
 11 12  1  0  0  0  0
 11 13  1  0  0  0  0
 11 29  1  0  0  0  0
 11 30  1  0  0  0  0
 12 14  1  0  0  0  0
 12 31  1  0  0  0  0
 12 32  1  0  0  0  0
 13 15  1  0  0  0  0
 13 33  1  0  0  0  0
 13 34  1  0  0  0  0
 14 16  1  0  0  0  0
 14 35  1  0  0  0  0
 14 36  1  0  0  0  0
M  END
> <PUBCHEM_COMPOUND_CID>
283592

> <PUBCHEM_COMPOUND_CANONICALIZED>
1

> <PUBCHEM_CACTVS_COMPLEXITY>
205

> <PUBCHEM_CACTVS_HBOND_ACCEPTOR>
2

> <PUBCHEM_CACTVS_HBOND_DONOR>
2

> <PUBCHEM_CACTVS_ROTATABLE_BOND>
0

> <PUBCHEM_CACTVS_SUBSKEYS>
AAADceBzMAAAAAAAAAAAAAAAAAAAAAAAAAAAAAAAAAAAAAAAAAAAHgAQAAAACADBgAQAAALAAAAIAAEQEAAAAAAAAAAAAIEIAAAAABIAgAAEAAAAFgCAAAEYCAAAAAAAAAAAAAAAAAAAAAAAAAAAAAAAAA==

> <PUBCHEM_IUPAC_OPENEYE_NAME>
1,8-diazacyclotetradecane-2,7-dione

> <PUBCHEM_IUPAC_CAS_NAME>
1,8-diazacyclotetradecane-2,7-dione

> <PUBCHEM_IUPAC_NAME_MARKUP>
1,8-diazacyclotetradecane-2,7-dione

> <PUBCHEM_IUPAC_NAME>
1,8-diazacyclotetradecane-2,7-dione

> <PUBCHEM_IUPAC_SYSTEMATIC_NAME>
1,8-diazacyclotetradecane-2,7-dione

> <PUBCHEM_IUPAC_TRADITIONAL_NAME>
1,8-diazacyclotetradecane-2,7-quinone

> <PUBCHEM_IUPAC_INCHI>
InChI=1S/C12H22N2O2/c15-11-7-3-4-8-12(16)14-10-6-2-1-5-9-13-11/h1-10H2,(H,13,15)(H,14,16)

> <PUBCHEM_IUPAC_INCHIKEY>
SXNYYEPTQTZOHG-UHFFFAOYSA-N

> <PUBCHEM_XLOGP3_AA>
0.6

> <PUBCHEM_EXACT_MASS>
226.168127949

> <PUBCHEM_MOLECULAR_FORMULA>
C12H22N2O2

> <PUBCHEM_MOLECULAR_WEIGHT>
226.32

> <PUBCHEM_SMILES>
C1CCCNC(=O)CCCCC(=O)NCC1

> <PUBCHEM_CONNECTIVITY_SMILES>
C1CCCNC(=O)CCCCC(=O)NCC1

> <PUBCHEM_CACTVS_TPSA>
58.2

> <PUBCHEM_MONOISOTOPIC_WEIGHT>
226.168127949

> <PUBCHEM_TOTAL_CHARGE>
0

> <PUBCHEM_HEAVY_ATOM_COUNT>
16

> <PUBCHEM_ATOM_DEF_STEREO_COUNT>
0

> <PUBCHEM_ATOM_UDEF_STEREO_COUNT>
0

> <PUBCHEM_BOND_DEF_STEREO_COUNT>
0

> <PUBCHEM_BOND_UDEF_STEREO_COUNT>
0

> <PUBCHEM_ISOTOPIC_ATOM_COUNT>
0

> <PUBCHEM_COMPONENT_COUNT>
1

> <PUBCHEM_CACTVS_TAUTO_COUNT>
-1

> <PUBCHEM_COORDINATE_TYPE>
1
5
255

$$$$
