284068
  -OEChem-05122609442D

 27 29  0     0  0  0  0  0  0999 V2000
    2.0574   -2.2469    0.0000 O   0  0  0  0  0  0  0  0  0  0  0  0
    3.7894   -2.2269    0.0000 O   0  0  0  0  0  0  0  0  0  0  0  0
    3.8000    0.7976    0.0000 C   0  0  0  0  0  0  0  0  0  0  0  0
    4.6660    1.2976    0.0000 C   0  0  0  0  0  0  0  0  0  0  0  0
    3.8000   -0.2024    0.0000 C   0  0  0  0  0  0  0  0  0  0  0  0
    5.5321    0.7976    0.0000 C   0  0  0  0  0  0  0  0  0  0  0  0
    2.9061   -0.7370    0.0000 C   0  0  0  0  0  0  0  0  0  0  0  0
    4.6660   -0.7024    0.0000 C   0  0  0  0  0  0  0  0  0  0  0  0
    5.5321   -0.2024    0.0000 C   0  0  0  0  0  0  0  0  0  0  0  0
    2.9061    1.3323    0.0000 C   0  0  0  0  0  0  0  0  0  0  0  0
    4.6500    2.3391    0.0000 C   0  0  0  0  0  0  0  0  0  0  0  0
    6.4421    1.3045    0.0000 C   0  0  0  0  0  0  0  0  0  0  0  0
    2.0000   -0.2232    0.0000 C   0  0  0  0  0  0  0  0  0  0  0  0
    2.0000    0.8185    0.0000 C   0  0  0  0  0  0  0  0  0  0  0  0
    5.5480    2.8669    0.0000 C   0  0  0  0  0  0  0  0  0  0  0  0
    6.4501    2.3461    0.0000 C   0  0  0  0  0  0  0  0  0  0  0  0
    2.9176   -1.7370    0.0000 C   0  0  0  0  0  0  0  0  0  0  0  0
    4.6660   -1.3224    0.0000 H   0  0  0  0  0  0  0  0  0  0  0  0
    6.0690   -0.5124    0.0000 H   0  0  0  0  0  0  0  0  0  0  0  0
    2.9132    1.9523    0.0000 H   0  0  0  0  0  0  0  0  0  0  0  0
    4.1095    2.6429    0.0000 H   0  0  0  0  0  0  0  0  0  0  0  0
    6.9754    0.9883    0.0000 H   0  0  0  0  0  0  0  0  0  0  0  0
    1.4643   -0.5352    0.0000 H   0  0  0  0  0  0  0  0  0  0  0  0
    1.4643    1.1305    0.0000 H   0  0  0  0  0  0  0  0  0  0  0  0
    5.5456    3.4869    0.0000 H   0  0  0  0  0  0  0  0  0  0  0  0
    6.9882    2.6540    0.0000 H   0  0  0  0  0  0  0  0  0  0  0  0
    2.0646   -2.8669    0.0000 H   0  0  0  0  0  0  0  0  0  0  0  0
  1 17  1  0  0  0  0
  1 27  1  0  0  0  0
  2 17  2  0  0  0  0
  3  4  1  0  0  0  0
  3  5  2  0  0  0  0
  3 10  1  0  0  0  0
  4  6  1  0  0  0  0
  4 11  2  0  0  0  0
  5  7  1  0  0  0  0
  5  8  1  0  0  0  0
  6  9  1  0  0  0  0
  6 12  2  0  0  0  0
  7 13  2  0  0  0  0
  7 17  1  0  0  0  0
  8  9  2  0  0  0  0
  8 18  1  0  0  0  0
  9 19  1  0  0  0  0
 10 14  2  0  0  0  0
 10 20  1  0  0  0  0
 11 15  1  0  0  0  0
 11 21  1  0  0  0  0
 12 16  1  0  0  0  0
 12 22  1  0  0  0  0
 13 14  1  0  0  0  0
 13 23  1  0  0  0  0
 14 24  1  0  0  0  0
 15 16  2  0  0  0  0
 15 25  1  0  0  0  0
 16 26  1  0  0  0  0
M  END
> <PUBCHEM_COMPOUND_CID>
284068

> <PUBCHEM_COMPOUND_CANONICALIZED>
1

> <PUBCHEM_CACTVS_COMPLEXITY>
299

> <PUBCHEM_CACTVS_HBOND_ACCEPTOR>
2

> <PUBCHEM_CACTVS_HBOND_DONOR>
1

> <PUBCHEM_CACTVS_ROTATABLE_BOND>
1

> <PUBCHEM_CACTVS_SUBSKEYS>
AAADccBwMAAAAAAAAAAAAAAAAAAAAAAAAAAwYMAAAAAAAADBVAAAGgAACAAADACAmAAwCMAAAgCIAiDSCAACAAAkAAAIiAEACMgIJjKAFRCAcQAkwAEImYeIyPCOwAACAAAQAACAAAQAACAAAAAAAAAAAA==

> <PUBCHEM_IUPAC_OPENEYE_NAME>
phenanthrene-1-carboxylic acid

> <PUBCHEM_IUPAC_CAS_NAME>
1-phenanthrenecarboxylic acid

> <PUBCHEM_IUPAC_NAME_MARKUP>
phenanthrene-1-carboxylic acid

> <PUBCHEM_IUPAC_NAME>
phenanthrene-1-carboxylic acid

> <PUBCHEM_IUPAC_SYSTEMATIC_NAME>
phenanthrene-1-carboxylic acid

> <PUBCHEM_IUPAC_TRADITIONAL_NAME>
phenanthrene-1-carboxylic acid

> <PUBCHEM_IUPAC_INCHI>
InChI=1S/C15H10O2/c16-15(17)14-7-3-6-12-11-5-2-1-4-10(11)8-9-13(12)14/h1-9H,(H,16,17)

> <PUBCHEM_IUPAC_INCHIKEY>
KFDKNTQGTAEZGC-UHFFFAOYSA-N

> <PUBCHEM_XLOGP3>
4.3

> <PUBCHEM_EXACT_MASS>
222.068079557

> <PUBCHEM_MOLECULAR_FORMULA>
C15H10O2

> <PUBCHEM_MOLECULAR_WEIGHT>
222.24

> <PUBCHEM_SMILES>
C1=CC=C2C(=C1)C=CC3=C2C=CC=C3C(=O)O

> <PUBCHEM_CONNECTIVITY_SMILES>
C1=CC=C2C(=C1)C=CC3=C2C=CC=C3C(=O)O

> <PUBCHEM_CACTVS_TPSA>
37.3

> <PUBCHEM_MONOISOTOPIC_WEIGHT>
222.068079557

> <PUBCHEM_TOTAL_CHARGE>
0

> <PUBCHEM_HEAVY_ATOM_COUNT>
17

> <PUBCHEM_ATOM_DEF_STEREO_COUNT>
0

> <PUBCHEM_ATOM_UDEF_STEREO_COUNT>
0

> <PUBCHEM_BOND_DEF_STEREO_COUNT>
0

> <PUBCHEM_BOND_UDEF_STEREO_COUNT>
0

> <PUBCHEM_ISOTOPIC_ATOM_COUNT>
0

> <PUBCHEM_COMPONENT_COUNT>
1

> <PUBCHEM_CACTVS_TAUTO_COUNT>
-1

> <PUBCHEM_COORDINATE_TYPE>
1
5
255

> <PUBCHEM_BONDANNOTATIONS>
10  14  8
11  15  8
12  16  8
13  14  8
15  16  8
3  10  8
3  4  8
3  5  8
4  11  8
4  6  8
5  7  8
5  8  8
6  12  8
6  9  8
7  13  8
8  9  8

$$$$
