28473
  -OEChem-05122608422D

 41 40  0     1  0  0  0  0  0999 V2000
    5.4641   -0.4330    0.0000 C   0  0  3  0  0  0  0  0  0  0  0  0
    6.3301    0.0670    0.0000 C   0  0  0  0  0  0  0  0  0  0  0  0
    4.5981   -0.9330    0.0000 C   0  0  0  0  0  0  0  0  0  0  0  0
    4.9641    0.4330    0.0000 C   0  0  0  0  0  0  0  0  0  0  0  0
    5.9641   -1.2990    0.0000 C   0  0  0  0  0  0  0  0  0  0  0  0
    7.1962   -0.4330    0.0000 C   0  0  0  0  0  0  0  0  0  0  0  0
    3.7321   -0.4330    0.0000 C   0  0  0  0  0  0  0  0  0  0  0  0
    8.0622    0.0670    0.0000 C   0  0  0  0  0  0  0  0  0  0  0  0
    5.4641    1.2990    0.0000 C   0  0  0  0  0  0  0  0  0  0  0  0
    2.8660   -0.9330    0.0000 C   0  0  0  0  0  0  0  0  0  0  0  0
    8.9282   -0.4330    0.0000 C   0  0  0  0  0  0  0  0  0  0  0  0
    2.0000   -0.4330    0.0000 C   0  0  0  0  0  0  0  0  0  0  0  0
    9.7942    0.0670    0.0000 C   0  0  0  0  0  0  0  0  0  0  0  0
    6.7287    0.5419    0.0000 H   0  0  0  0  0  0  0  0  0  0  0  0
    5.9316    0.5419    0.0000 H   0  0  0  0  0  0  0  0  0  0  0  0
    4.1996   -1.4080    0.0000 H   0  0  0  0  0  0  0  0  0  0  0  0
    4.9966   -1.4080    0.0000 H   0  0  0  0  0  0  0  0  0  0  0  0
    4.4892    0.8315    0.0000 H   0  0  0  0  0  0  0  0  0  0  0  0
    4.4892    0.0345    0.0000 H   0  0  0  0  0  0  0  0  0  0  0  0
    5.4272   -1.6090    0.0000 H   0  0  0  0  0  0  0  0  0  0  0  0
    6.2741   -1.8360    0.0000 H   0  0  0  0  0  0  0  0  0  0  0  0
    6.5010   -0.9890    0.0000 H   0  0  0  0  0  0  0  0  0  0  0  0
    6.7976   -0.9080    0.0000 H   0  0  0  0  0  0  0  0  0  0  0  0
    7.5947   -0.9080    0.0000 H   0  0  0  0  0  0  0  0  0  0  0  0
    4.1306    0.0419    0.0000 H   0  0  0  0  0  0  0  0  0  0  0  0
    3.3335    0.0419    0.0000 H   0  0  0  0  0  0  0  0  0  0  0  0
    8.4607    0.5419    0.0000 H   0  0  0  0  0  0  0  0  0  0  0  0
    7.6637    0.5419    0.0000 H   0  0  0  0  0  0  0  0  0  0  0  0
    6.0010    0.9890    0.0000 H   0  0  0  0  0  0  0  0  0  0  0  0
    5.7741    1.8360    0.0000 H   0  0  0  0  0  0  0  0  0  0  0  0
    4.9272    1.6090    0.0000 H   0  0  0  0  0  0  0  0  0  0  0  0
    2.4675   -1.4080    0.0000 H   0  0  0  0  0  0  0  0  0  0  0  0
    3.2646   -1.4080    0.0000 H   0  0  0  0  0  0  0  0  0  0  0  0
    8.5297   -0.9080    0.0000 H   0  0  0  0  0  0  0  0  0  0  0  0
    9.3267   -0.9080    0.0000 H   0  0  0  0  0  0  0  0  0  0  0  0
    2.3100    0.1039    0.0000 H   0  0  0  0  0  0  0  0  0  0  0  0
    1.4631   -0.1230    0.0000 H   0  0  0  0  0  0  0  0  0  0  0  0
    1.6900   -0.9699    0.0000 H   0  0  0  0  0  0  0  0  0  0  0  0
   10.1042   -0.4699    0.0000 H   0  0  0  0  0  0  0  0  0  0  0  0
   10.3312    0.3770    0.0000 H   0  0  0  0  0  0  0  0  0  0  0  0
    9.4842    0.6039    0.0000 H   0  0  0  0  0  0  0  0  0  0  0  0
  1  2  1  0  0  0  0
  1  3  1  0  0  0  0
  1  4  1  0  0  0  0
  1  5  1  0  0  0  0
  2  6  1  0  0  0  0
  2 14  1  0  0  0  0
  2 15  1  0  0  0  0
  3  7  1  0  0  0  0
  3 16  1  0  0  0  0
  3 17  1  0  0  0  0
  4  9  1  0  0  0  0
  4 18  1  0  0  0  0
  4 19  1  0  0  0  0
  5 20  1  0  0  0  0
  5 21  1  0  0  0  0
  5 22  1  0  0  0  0
  6  8  1  0  0  0  0
  6 23  1  0  0  0  0
  6 24  1  0  0  0  0
  7 10  1  0  0  0  0
  7 25  1  0  0  0  0
  7 26  1  0  0  0  0
  8 11  1  0  0  0  0
  8 27  1  0  0  0  0
  8 28  1  0  0  0  0
  9 29  1  0  0  0  0
  9 30  1  0  0  0  0
  9 31  1  0  0  0  0
 10 12  1  0  0  0  0
 10 32  1  0  0  0  0
 10 33  1  0  0  0  0
 11 13  1  0  0  0  0
 11 34  1  0  0  0  0
 11 35  1  0  0  0  0
 12 36  1  0  0  0  0
 12 37  1  0  0  0  0
 12 38  1  0  0  0  0
 13 39  1  0  0  0  0
 13 40  1  0  0  0  0
 13 41  1  0  0  0  0
M  END
> <PUBCHEM_COMPOUND_CID>
28473

> <PUBCHEM_COMPOUND_CANONICALIZED>
1

> <PUBCHEM_CACTVS_COMPLEXITY>
107

> <PUBCHEM_CACTVS_HBOND_ACCEPTOR>
0

> <PUBCHEM_CACTVS_HBOND_DONOR>
0

> <PUBCHEM_CACTVS_ROTATABLE_BOND>
8

> <PUBCHEM_CACTVS_SUBSKEYS>
AAADceBwAAAAAAAAAAAAAAAAAAAAAAAAAAAAAAAAAAAAAAAAAAAAGAAAAAAADgCAAAACAAAAAAAAAAAAAAAAAAAAAAAAAAAAAAAAAAIAAAAAAAAAAAAAAAEAgMAPAAAAAAAAAAAAAAAAAAAAAAAAAAAAAA==

> <PUBCHEM_IUPAC_OPENEYE_NAME>
5-ethyl-5-methyl-decane

> <PUBCHEM_IUPAC_CAS_NAME>
5-ethyl-5-methyldecane

> <PUBCHEM_IUPAC_NAME_MARKUP>
5-ethyl-5-methyldecane

> <PUBCHEM_IUPAC_NAME>
5-ethyl-5-methyldecane

> <PUBCHEM_IUPAC_SYSTEMATIC_NAME>
5-ethyl-5-methyl-decane

> <PUBCHEM_IUPAC_TRADITIONAL_NAME>
5-ethyl-5-methyl-decane

> <PUBCHEM_IUPAC_INCHI>
InChI=1S/C13H28/c1-5-8-10-12-13(4,7-3)11-9-6-2/h5-12H2,1-4H3

> <PUBCHEM_IUPAC_INCHIKEY>
METKCQZZZVWWCD-UHFFFAOYSA-N

> <PUBCHEM_XLOGP3_AA>
6.8

> <PUBCHEM_EXACT_MASS>
184.219100893

> <PUBCHEM_MOLECULAR_FORMULA>
C13H28

> <PUBCHEM_MOLECULAR_WEIGHT>
184.36

> <PUBCHEM_SMILES>
CCCCCC(C)(CC)CCCC

> <PUBCHEM_CONNECTIVITY_SMILES>
CCCCCC(C)(CC)CCCC

> <PUBCHEM_CACTVS_TPSA>
0

> <PUBCHEM_MONOISOTOPIC_WEIGHT>
184.219100893

> <PUBCHEM_TOTAL_CHARGE>
0

> <PUBCHEM_HEAVY_ATOM_COUNT>
13

> <PUBCHEM_ATOM_DEF_STEREO_COUNT>
0

> <PUBCHEM_ATOM_UDEF_STEREO_COUNT>
1

> <PUBCHEM_BOND_DEF_STEREO_COUNT>
0

> <PUBCHEM_BOND_UDEF_STEREO_COUNT>
0

> <PUBCHEM_ISOTOPIC_ATOM_COUNT>
0

> <PUBCHEM_COMPONENT_COUNT>
1

> <PUBCHEM_CACTVS_TAUTO_COUNT>
-1

> <PUBCHEM_COORDINATE_TYPE>
1
5
255

> <PUBCHEM_BONDANNOTATIONS>
1  5  3

$$$$
