28838
  -OEChem-05122608302D

 47 46  0     0  0  0  0  0  0999 V2000
    4.5981   -0.8660    0.0000 Si  0  0  0  0  0  0  0  0  0  0  0  0
    6.3301   -0.8660    0.0000 Si  0  0  0  0  0  0  0  0  0  0  0  0
    2.8660   -0.8660    0.0000 Si  0  0  0  0  0  0  0  0  0  0  0  0
    4.5981    0.8660    0.0000 Si  0  0  0  0  0  0  0  0  0  0  0  0
    5.4641   -0.3660    0.0000 O   0  0  0  0  0  0  0  0  0  0  0  0
    3.7321   -1.3660    0.0000 O   0  0  0  0  0  0  0  0  0  0  0  0
    4.0981    0.0000    0.0000 O   0  0  0  0  0  0  0  0  0  0  0  0
    5.0981   -1.7321    0.0000 C   0  0  0  0  0  0  0  0  0  0  0  0
    7.1962   -1.3660    0.0000 C   0  0  0  0  0  0  0  0  0  0  0  0
    6.8301    0.0000    0.0000 C   0  0  0  0  0  0  0  0  0  0  0  0
    5.8301   -1.7321    0.0000 C   0  0  0  0  0  0  0  0  0  0  0  0
    2.0000   -0.3660    0.0000 C   0  0  0  0  0  0  0  0  0  0  0  0
    2.3660   -1.7321    0.0000 C   0  0  0  0  0  0  0  0  0  0  0  0
    3.3660    0.0000    0.0000 C   0  0  0  0  0  0  0  0  0  0  0  0
    5.0981    1.7321    0.0000 C   0  0  0  0  0  0  0  0  0  0  0  0
    3.7321    1.3660    0.0000 C   0  0  0  0  0  0  0  0  0  0  0  0
    5.4641    0.3660    0.0000 C   0  0  0  0  0  0  0  0  0  0  0  0
    4.5611   -2.0421    0.0000 H   0  0  0  0  0  0  0  0  0  0  0  0
    5.4081   -2.2690    0.0000 H   0  0  0  0  0  0  0  0  0  0  0  0
    5.6350   -1.4221    0.0000 H   0  0  0  0  0  0  0  0  0  0  0  0
    6.8862   -1.9030    0.0000 H   0  0  0  0  0  0  0  0  0  0  0  0
    7.7331   -1.6760    0.0000 H   0  0  0  0  0  0  0  0  0  0  0  0
    7.5062   -0.8291    0.0000 H   0  0  0  0  0  0  0  0  0  0  0  0
    7.3671   -0.3100    0.0000 H   0  0  0  0  0  0  0  0  0  0  0  0
    7.1401    0.5369    0.0000 H   0  0  0  0  0  0  0  0  0  0  0  0
    6.2932    0.3100    0.0000 H   0  0  0  0  0  0  0  0  0  0  0  0
    5.2932   -1.4221    0.0000 H   0  0  0  0  0  0  0  0  0  0  0  0
    5.5201   -2.2690    0.0000 H   0  0  0  0  0  0  0  0  0  0  0  0
    6.3671   -2.0421    0.0000 H   0  0  0  0  0  0  0  0  0  0  0  0
    2.3100    0.1709    0.0000 H   0  0  0  0  0  0  0  0  0  0  0  0
    1.4631   -0.0560    0.0000 H   0  0  0  0  0  0  0  0  0  0  0  0
    1.6900   -0.9030    0.0000 H   0  0  0  0  0  0  0  0  0  0  0  0
    1.8291   -1.4221    0.0000 H   0  0  0  0  0  0  0  0  0  0  0  0
    2.0560   -2.2690    0.0000 H   0  0  0  0  0  0  0  0  0  0  0  0
    2.9030   -2.0421    0.0000 H   0  0  0  0  0  0  0  0  0  0  0  0
    3.9030   -0.3100    0.0000 H   0  0  0  0  0  0  0  0  0  0  0  0
    3.6760    0.5369    0.0000 H   0  0  0  0  0  0  0  0  0  0  0  0
    2.8291    0.3100    0.0000 H   0  0  0  0  0  0  0  0  0  0  0  0
    5.6350    1.4221    0.0000 H   0  0  0  0  0  0  0  0  0  0  0  0
    5.4081    2.2690    0.0000 H   0  0  0  0  0  0  0  0  0  0  0  0
    4.5611    2.0421    0.0000 H   0  0  0  0  0  0  0  0  0  0  0  0
    4.0421    1.9030    0.0000 H   0  0  0  0  0  0  0  0  0  0  0  0
    3.1951    1.6760    0.0000 H   0  0  0  0  0  0  0  0  0  0  0  0
    3.4221    0.8291    0.0000 H   0  0  0  0  0  0  0  0  0  0  0  0
    5.1541   -0.1709    0.0000 H   0  0  0  0  0  0  0  0  0  0  0  0
    6.0010    0.0560    0.0000 H   0  0  0  0  0  0  0  0  0  0  0  0
    5.7741    0.9030    0.0000 H   0  0  0  0  0  0  0  0  0  0  0  0
  1  5  1  0  0  0  0
  1  6  1  0  0  0  0
  1  7  1  0  0  0  0
  1  8  1  0  0  0  0
  2  5  1  0  0  0  0
  2  9  1  0  0  0  0
  2 10  1  0  0  0  0
  2 11  1  0  0  0  0
  3  6  1  0  0  0  0
  3 12  1  0  0  0  0
  3 13  1  0  0  0  0
  3 14  1  0  0  0  0
  4  7  1  0  0  0  0
  4 15  1  0  0  0  0
  4 16  1  0  0  0  0
  4 17  1  0  0  0  0
  8 18  1  0  0  0  0
  8 19  1  0  0  0  0
  8 20  1  0  0  0  0
  9 21  1  0  0  0  0
  9 22  1  0  0  0  0
  9 23  1  0  0  0  0
 10 24  1  0  0  0  0
 10 25  1  0  0  0  0
 10 26  1  0  0  0  0
 11 27  1  0  0  0  0
 11 28  1  0  0  0  0
 11 29  1  0  0  0  0
 12 30  1  0  0  0  0
 12 31  1  0  0  0  0
 12 32  1  0  0  0  0
 13 33  1  0  0  0  0
 13 34  1  0  0  0  0
 13 35  1  0  0  0  0
 14 36  1  0  0  0  0
 14 37  1  0  0  0  0
 14 38  1  0  0  0  0
 15 39  1  0  0  0  0
 15 40  1  0  0  0  0
 15 41  1  0  0  0  0
 16 42  1  0  0  0  0
 16 43  1  0  0  0  0
 16 44  1  0  0  0  0
 17 45  1  0  0  0  0
 17 46  1  0  0  0  0
 17 47  1  0  0  0  0
M  END
> <PUBCHEM_COMPOUND_CID>
28838

> <PUBCHEM_COMPOUND_CANONICALIZED>
1

> <PUBCHEM_CACTVS_COMPLEXITY>
209

> <PUBCHEM_CACTVS_HBOND_ACCEPTOR>
3

> <PUBCHEM_CACTVS_HBOND_DONOR>
0

> <PUBCHEM_CACTVS_ROTATABLE_BOND>
6

> <PUBCHEM_CACTVS_SUBSKEYS>
AAADceBwMAwAAAAAAAAAAAAAAAAAAAAAAAAAAAAAAAAAAAAAAAAAEBAAAEAAAAAAAABCAAAAAAEAAAAAAAAAAAAAAAAAAAAAAAAAAAAAAAAAAAAAAAAAAAAAAAAAAAAAAAAAAAAAAAAAAAAAAAAAAAAAAA==

> <PUBCHEM_IUPAC_OPENEYE_NAME>
trimethyl-[methyl-bis(trimethylsilyloxy)silyl]oxy-silane

> <PUBCHEM_IUPAC_CAS_NAME>
trimethyl-[methyl-bis(trimethylsilyloxy)silyl]oxysilane

> <PUBCHEM_IUPAC_NAME_MARKUP>
trimethyl-[methyl-bis(trimethylsilyloxy)silyl]oxysilane

> <PUBCHEM_IUPAC_NAME>
trimethyl-[methyl-bis(trimethylsilyloxy)silyl]oxysilane

> <PUBCHEM_IUPAC_SYSTEMATIC_NAME>
trimethyl-[methyl-bis(trimethylsilyloxy)silyl]oxy-silane

> <PUBCHEM_IUPAC_TRADITIONAL_NAME>
trimethyl-[methyl-bis(trimethylsilyloxy)silyl]oxy-silane

> <PUBCHEM_IUPAC_INCHI>
InChI=1S/C10H30O3Si4/c1-14(2,3)11-17(10,12-15(4,5)6)13-16(7,8)9/h1-10H3

> <PUBCHEM_IUPAC_INCHIKEY>
RGMZNZABJYWAEC-UHFFFAOYSA-N

> <PUBCHEM_EXACT_MASS>
310.12720095

> <PUBCHEM_MOLECULAR_FORMULA>
C10H30O3Si4

> <PUBCHEM_MOLECULAR_WEIGHT>
310.68

> <PUBCHEM_SMILES>
C[Si](C)(C)O[Si](C)(O[Si](C)(C)C)O[Si](C)(C)C

> <PUBCHEM_CONNECTIVITY_SMILES>
C[Si](C)(C)O[Si](C)(O[Si](C)(C)C)O[Si](C)(C)C

> <PUBCHEM_CACTVS_TPSA>
27.7

> <PUBCHEM_MONOISOTOPIC_WEIGHT>
310.12720095

> <PUBCHEM_TOTAL_CHARGE>
0

> <PUBCHEM_HEAVY_ATOM_COUNT>
17

> <PUBCHEM_ATOM_DEF_STEREO_COUNT>
0

> <PUBCHEM_ATOM_UDEF_STEREO_COUNT>
0

> <PUBCHEM_BOND_DEF_STEREO_COUNT>
0

> <PUBCHEM_BOND_UDEF_STEREO_COUNT>
0

> <PUBCHEM_ISOTOPIC_ATOM_COUNT>
0

> <PUBCHEM_COMPONENT_COUNT>
1

> <PUBCHEM_CACTVS_TAUTO_COUNT>
-1

> <PUBCHEM_COORDINATE_TYPE>
1
5
255

$$$$
