296267
  -OEChem-05122609572D

 74 76  0     1  0  0  0  0  0999 V2000
    3.8000    4.2154    0.0000 C   0  0  3  0  0  0  0  0  0  0  0  0
    4.6660    4.7154    0.0000 C   0  0  3  0  0  0  0  0  0  0  0  0
    3.8000    3.2154    0.0000 C   0  0  3  0  0  0  0  0  0  0  0  0
    5.5321    4.2154    0.0000 C   0  0  3  0  0  0  0  0  0  0  0  0
    4.6660    2.7154    0.0000 C   0  0  3  0  0  0  0  0  0  0  0  0
    5.5321    3.2154    0.0000 C   0  0  0  0  0  0  0  0  0  0  0  0
    2.9061    4.7500    0.0000 C   0  0  0  0  0  0  0  0  0  0  0  0
    4.6500    5.7569    0.0000 C   0  0  0  0  0  0  0  0  0  0  0  0
    2.9061    2.6807    0.0000 C   0  0  0  0  0  0  0  0  0  0  0  0
    6.4421    4.7222    0.0000 C   0  0  0  0  0  0  0  0  0  0  0  0
    2.0000    4.2362    0.0000 C   0  0  0  0  0  0  0  0  0  0  0  0
    4.6660    1.7154    0.0000 C   0  0  0  0  0  0  0  0  0  0  0  0
    2.0000    3.1946    0.0000 C   0  0  0  0  0  0  0  0  0  0  0  0
    5.5480    6.2846    0.0000 C   0  0  0  0  0  0  0  0  0  0  0  0
    6.4501    5.7638    0.0000 C   0  0  0  0  0  0  0  0  0  0  0  0
    5.5321    1.2154    0.0000 C   0  0  0  0  0  0  0  0  0  0  0  0
    5.5321    0.2154    0.0000 C   0  0  0  0  0  0  0  0  0  0  0  0
    6.3981   -0.2846    0.0000 C   0  0  0  0  0  0  0  0  0  0  0  0
    6.3981   -1.2846    0.0000 C   0  0  0  0  0  0  0  0  0  0  0  0
    7.2641   -1.7846    0.0000 C   0  0  0  0  0  0  0  0  0  0  0  0
    7.2641   -2.7846    0.0000 C   0  0  0  0  0  0  0  0  0  0  0  0
    8.1301   -3.2846    0.0000 C   0  0  0  0  0  0  0  0  0  0  0  0
    8.1301   -4.2846    0.0000 C   0  0  0  0  0  0  0  0  0  0  0  0
    8.9962   -4.7846    0.0000 C   0  0  0  0  0  0  0  0  0  0  0  0
    8.9962   -5.7846    0.0000 C   0  0  0  0  0  0  0  0  0  0  0  0
    9.8622   -6.2846    0.0000 C   0  0  0  0  0  0  0  0  0  0  0  0
    3.8048    4.8354    0.0000 H   0  0  0  0  0  0  0  0  0  0  0  0
    5.2006    5.0295    0.0000 H   0  0  0  0  0  0  0  0  0  0  0  0
    3.8048    2.5954    0.0000 H   0  0  0  0  0  0  0  0  0  0  0  0
    6.0666    3.9012    0.0000 H   0  0  0  0  0  0  0  0  0  0  0  0
    5.2030    2.4054    0.0000 H   0  0  0  0  0  0  0  0  0  0  0  0
    5.7441    2.6328    0.0000 H   0  0  0  0  0  0  0  0  0  0  0  0
    6.1426    3.3230    0.0000 H   0  0  0  0  0  0  0  0  0  0  0  0
    3.3107    5.2198    0.0000 H   0  0  0  0  0  0  0  0  0  0  0  0
    2.5124    5.2291    0.0000 H   0  0  0  0  0  0  0  0  0  0  0  0
    4.4320    6.3373    0.0000 H   0  0  0  0  0  0  0  0  0  0  0  0
    4.0408    5.6414    0.0000 H   0  0  0  0  0  0  0  0  0  0  0  0
    2.5124    2.2017    0.0000 H   0  0  0  0  0  0  0  0  0  0  0  0
    3.3107    2.2109    0.0000 H   0  0  0  0  0  0  0  0  0  0  0  0
    6.6466    4.1369    0.0000 H   0  0  0  0  0  0  0  0  0  0  0  0
    7.0537    4.8236    0.0000 H   0  0  0  0  0  0  0  0  0  0  0  0
    1.7909    4.8199    0.0000 H   0  0  0  0  0  0  0  0  0  0  0  0
    1.3891    4.1301    0.0000 H   0  0  0  0  0  0  0  0  0  0  0  0
    4.0555    1.8230    0.0000 H   0  0  0  0  0  0  0  0  0  0  0  0
    4.4540    1.1328    0.0000 H   0  0  0  0  0  0  0  0  0  0  0  0
    1.3891    3.3007    0.0000 H   0  0  0  0  0  0  0  0  0  0  0  0
    1.7909    2.6109    0.0000 H   0  0  0  0  0  0  0  0  0  0  0  0
    5.9453    6.7606    0.0000 H   0  0  0  0  0  0  0  0  0  0  0  0
    5.1471    6.7575    0.0000 H   0  0  0  0  0  0  0  0  0  0  0  0
    7.0601    5.6530    0.0000 H   0  0  0  0  0  0  0  0  0  0  0  0
    6.6636    6.3459    0.0000 H   0  0  0  0  0  0  0  0  0  0  0  0
    6.1426    1.1077    0.0000 H   0  0  0  0  0  0  0  0  0  0  0  0
    5.7441    1.7980    0.0000 H   0  0  0  0  0  0  0  0  0  0  0  0
    4.9215    0.3230    0.0000 H   0  0  0  0  0  0  0  0  0  0  0  0
    5.3200   -0.3672    0.0000 H   0  0  0  0  0  0  0  0  0  0  0  0
    7.0087   -0.3923    0.0000 H   0  0  0  0  0  0  0  0  0  0  0  0
    6.6101    0.2980    0.0000 H   0  0  0  0  0  0  0  0  0  0  0  0
    5.7875   -1.1770    0.0000 H   0  0  0  0  0  0  0  0  0  0  0  0
    6.1860   -1.8672    0.0000 H   0  0  0  0  0  0  0  0  0  0  0  0
    7.8747   -1.8923    0.0000 H   0  0  0  0  0  0  0  0  0  0  0  0
    7.4762   -1.2020    0.0000 H   0  0  0  0  0  0  0  0  0  0  0  0
    6.6535   -2.6770    0.0000 H   0  0  0  0  0  0  0  0  0  0  0  0
    7.0521   -3.3672    0.0000 H   0  0  0  0  0  0  0  0  0  0  0  0
    8.7407   -3.3923    0.0000 H   0  0  0  0  0  0  0  0  0  0  0  0
    8.3422   -2.7020    0.0000 H   0  0  0  0  0  0  0  0  0  0  0  0
    7.5196   -4.1770    0.0000 H   0  0  0  0  0  0  0  0  0  0  0  0
    7.9181   -4.8672    0.0000 H   0  0  0  0  0  0  0  0  0  0  0  0
    9.6067   -4.8923    0.0000 H   0  0  0  0  0  0  0  0  0  0  0  0
    9.2082   -4.2020    0.0000 H   0  0  0  0  0  0  0  0  0  0  0  0
    8.3856   -5.6770    0.0000 H   0  0  0  0  0  0  0  0  0  0  0  0
    8.7841   -6.3672    0.0000 H   0  0  0  0  0  0  0  0  0  0  0  0
    9.5522   -6.8216    0.0000 H   0  0  0  0  0  0  0  0  0  0  0  0
   10.3991   -6.5946    0.0000 H   0  0  0  0  0  0  0  0  0  0  0  0
   10.1722   -5.7477    0.0000 H   0  0  0  0  0  0  0  0  0  0  0  0
  1  2  1  0  0  0  0
  1  3  1  0  0  0  0
  1  7  1  0  0  0  0
  1 27  1  0  0  0  0
  2  4  1  0  0  0  0
  2  8  1  0  0  0  0
  2 28  1  0  0  0  0
  3  5  1  0  0  0  0
  3  9  1  0  0  0  0
  3 29  1  0  0  0  0
  4  6  1  0  0  0  0
  4 10  1  0  0  0  0
  4 30  1  0  0  0  0
  5  6  1  0  0  0  0
  5 12  1  0  0  0  0
  5 31  1  0  0  0  0
  6 32  1  0  0  0  0
  6 33  1  0  0  0  0
  7 11  1  0  0  0  0
  7 34  1  0  0  0  0
  7 35  1  0  0  0  0
  8 14  1  0  0  0  0
  8 36  1  0  0  0  0
  8 37  1  0  0  0  0
  9 13  1  0  0  0  0
  9 38  1  0  0  0  0
  9 39  1  0  0  0  0
 10 15  1  0  0  0  0
 10 40  1  0  0  0  0
 10 41  1  0  0  0  0
 11 13  1  0  0  0  0
 11 42  1  0  0  0  0
 11 43  1  0  0  0  0
 12 16  1  0  0  0  0
 12 44  1  0  0  0  0
 12 45  1  0  0  0  0
 13 46  1  0  0  0  0
 13 47  1  0  0  0  0
 14 15  1  0  0  0  0
 14 48  1  0  0  0  0
 14 49  1  0  0  0  0
 15 50  1  0  0  0  0
 15 51  1  0  0  0  0
 16 17  1  0  0  0  0
 16 52  1  0  0  0  0
 16 53  1  0  0  0  0
 17 18  1  0  0  0  0
 17 54  1  0  0  0  0
 17 55  1  0  0  0  0
 18 19  1  0  0  0  0
 18 56  1  0  0  0  0
 18 57  1  0  0  0  0
 19 20  1  0  0  0  0
 19 58  1  0  0  0  0
 19 59  1  0  0  0  0
 20 21  1  0  0  0  0
 20 60  1  0  0  0  0
 20 61  1  0  0  0  0
 21 22  1  0  0  0  0
 21 62  1  0  0  0  0
 21 63  1  0  0  0  0
 22 23  1  0  0  0  0
 22 64  1  0  0  0  0
 22 65  1  0  0  0  0
 23 24  1  0  0  0  0
 23 66  1  0  0  0  0
 23 67  1  0  0  0  0
 24 25  1  0  0  0  0
 24 68  1  0  0  0  0
 24 69  1  0  0  0  0
 25 26  1  0  0  0  0
 25 70  1  0  0  0  0
 25 71  1  0  0  0  0
 26 72  1  0  0  0  0
 26 73  1  0  0  0  0
 26 74  1  0  0  0  0
M  END
> <PUBCHEM_COMPOUND_CID>
296267

> <PUBCHEM_COMPOUND_CANONICALIZED>
1

> <PUBCHEM_CACTVS_COMPLEXITY>
359

> <PUBCHEM_CACTVS_HBOND_ACCEPTOR>
0

> <PUBCHEM_CACTVS_HBOND_DONOR>
0

> <PUBCHEM_CACTVS_ROTATABLE_BOND>
11

> <PUBCHEM_CACTVS_SUBSKEYS>
AAADcfB4AAAAAAAAAAAAAAAAAAAAAAAAAAAwYMAAAAAAAADAAAAAGAAAAAAADQCAAAACAAAAAAAAAAAAAAAAAAAAAAAAAAAAAAAAAAIAAAAAAAAAAAAAAAEAgMAOgAAAAAAAAACAAAQAACAAAAAAAAAAAA==

> <PUBCHEM_IUPAC_OPENEYE_NAME>
9-dodecyl-1,2,3,4,4a,4b,5,6,7,8,8a,9,10,10a-tetradecahydrophenanthrene

> <PUBCHEM_IUPAC_CAS_NAME>
9-dodecyl-1,2,3,4,4a,4b,5,6,7,8,8a,9,10,10a-tetradecahydrophenanthrene

> <PUBCHEM_IUPAC_NAME_MARKUP>
9-dodecyl-1,2,3,4,4<I>a</I>,4<I>b</I>,5,6,7,8,8<I>a</I>,9,10,10<I>a</I>-tetradecahydrophenanthrene

> <PUBCHEM_IUPAC_NAME>
9-dodecyl-1,2,3,4,4a,4b,5,6,7,8,8a,9,10,10a-tetradecahydrophenanthrene

> <PUBCHEM_IUPAC_SYSTEMATIC_NAME>
9-dodecyl-1,2,3,4,4a,4b,5,6,7,8,8a,9,10,10a-tetradecahydrophenanthrene

> <PUBCHEM_IUPAC_TRADITIONAL_NAME>
9-lauryl-1,2,3,4,4a,4b,5,6,7,8,8a,9,10,10a-tetradecahydrophenanthrene

> <PUBCHEM_IUPAC_INCHI>
InChI=1S/C26H48/c1-2-3-4-5-6-7-8-9-10-11-16-22-21-23-17-12-13-18-24(23)26-20-15-14-19-25(22)26/h22-26H,2-21H2,1H3

> <PUBCHEM_IUPAC_INCHIKEY>
JTVJHJFIEIFWQH-UHFFFAOYSA-N

> <PUBCHEM_XLOGP3_AA>
12.2

> <PUBCHEM_EXACT_MASS>
360.375601531

> <PUBCHEM_MOLECULAR_FORMULA>
C26H48

> <PUBCHEM_MOLECULAR_WEIGHT>
360.7

> <PUBCHEM_SMILES>
CCCCCCCCCCCCC1CC2CCCCC2C3C1CCCC3

> <PUBCHEM_CONNECTIVITY_SMILES>
CCCCCCCCCCCCC1CC2CCCCC2C3C1CCCC3

> <PUBCHEM_CACTVS_TPSA>
0

> <PUBCHEM_MONOISOTOPIC_WEIGHT>
360.375601531

> <PUBCHEM_TOTAL_CHARGE>
0

> <PUBCHEM_HEAVY_ATOM_COUNT>
26

> <PUBCHEM_ATOM_DEF_STEREO_COUNT>
0

> <PUBCHEM_ATOM_UDEF_STEREO_COUNT>
5

> <PUBCHEM_BOND_DEF_STEREO_COUNT>
0

> <PUBCHEM_BOND_UDEF_STEREO_COUNT>
0

> <PUBCHEM_ISOTOPIC_ATOM_COUNT>
0

> <PUBCHEM_COMPONENT_COUNT>
1

> <PUBCHEM_CACTVS_TAUTO_COUNT>
-1

> <PUBCHEM_COORDINATE_TYPE>
1
5
255

> <PUBCHEM_BONDANNOTATIONS>
1  7  3
2  8  3
3  9  3
4  10  3
5  12  3

$$$$
