296646
  -OEChem-05122609502D

 24 24  0     1  0  0  0  0  0999 V2000
    2.3244   -2.1310    0.0000 Br  0  0  0  0  0  0  0  0  0  0  0  0
    4.0898   -2.1310    0.0000 Br  0  0  0  0  0  0  0  0  0  0  0  0
    2.3244    2.1310    0.0000 Br  0  0  0  0  0  0  0  0  0  0  0  0
    4.0898    2.1310    0.0000 Br  0  0  0  0  0  0  0  0  0  0  0  0
    2.7071   -1.2071    0.0000 C   0  0  3  0  0  0  0  0  0  0  0  0
    3.7071   -1.2071    0.0000 C   0  0  3  0  0  0  0  0  0  0  0  0
    2.7071    1.2071    0.0000 C   0  0  3  0  0  0  0  0  0  0  0  0
    3.7071    1.2071    0.0000 C   0  0  3  0  0  0  0  0  0  0  0  0
    2.0000   -0.5000    0.0000 C   0  0  0  0  0  0  0  0  0  0  0  0
    4.4142   -0.5000    0.0000 C   0  0  0  0  0  0  0  0  0  0  0  0
    2.0000    0.5000    0.0000 C   0  0  0  0  0  0  0  0  0  0  0  0
    4.4142    0.5000    0.0000 C   0  0  0  0  0  0  0  0  0  0  0  0
    2.0990   -1.3281    0.0000 H   0  0  0  0  0  0  0  0  0  0  0  0
    3.3627   -1.7226    0.0000 H   0  0  0  0  0  0  0  0  0  0  0  0
    2.9444    0.6343    0.0000 H   0  0  0  0  0  0  0  0  0  0  0  0
    3.3627    1.7226    0.0000 H   0  0  0  0  0  0  0  0  0  0  0  0
    1.4011   -0.3395    0.0000 H   0  0  0  0  0  0  0  0  0  0  0  0
    1.6900   -1.0369    0.0000 H   0  0  0  0  0  0  0  0  0  0  0  0
    4.7242   -1.0369    0.0000 H   0  0  0  0  0  0  0  0  0  0  0  0
    5.0131   -0.3395    0.0000 H   0  0  0  0  0  0  0  0  0  0  0  0
    1.6900    1.0369    0.0000 H   0  0  0  0  0  0  0  0  0  0  0  0
    1.4011    0.3395    0.0000 H   0  0  0  0  0  0  0  0  0  0  0  0
    5.0131    0.3395    0.0000 H   0  0  0  0  0  0  0  0  0  0  0  0
    4.7242    1.0369    0.0000 H   0  0  0  0  0  0  0  0  0  0  0  0
  1  5  1  0  0  0  0
  2  6  1  0  0  0  0
  3  7  1  0  0  0  0
  4  8  1  0  0  0  0
  5  6  1  0  0  0  0
  5  9  1  0  0  0  0
  5 13  1  0  0  0  0
  6 10  1  0  0  0  0
  6 14  1  0  0  0  0
  7  8  1  0  0  0  0
  7 11  1  0  0  0  0
  7 15  1  0  0  0  0
  8 12  1  0  0  0  0
  8 16  1  0  0  0  0
  9 11  1  0  0  0  0
  9 17  1  0  0  0  0
  9 18  1  0  0  0  0
 10 12  1  0  0  0  0
 10 19  1  0  0  0  0
 10 20  1  0  0  0  0
 11 21  1  0  0  0  0
 11 22  1  0  0  0  0
 12 23  1  0  0  0  0
 12 24  1  0  0  0  0
M  END
> <PUBCHEM_COMPOUND_CID>
296646

> <PUBCHEM_COMPOUND_CANONICALIZED>
1

> <PUBCHEM_CACTVS_COMPLEXITY>
107

> <PUBCHEM_CACTVS_HBOND_ACCEPTOR>
0

> <PUBCHEM_CACTVS_HBOND_DONOR>
0

> <PUBCHEM_CACTVS_ROTATABLE_BOND>
0

> <PUBCHEM_CACTVS_SUBSKEYS>
AAADccBwAAAAHAAAAAAAAAAAAAAAAAAAAAAAAAAAAAAYAAAAAAAAGABAAAAByACAAAAAAAAAAAAAAAAAAAAAAAAAAAAAAAAAACAAAAIAAAAAAAAAAAAAAAEAgIAAAAAAAAAAAAAAAAAAAAAAAAAAAAAAAA==

> <PUBCHEM_IUPAC_OPENEYE_NAME>
1,2,5,6-tetrabromocyclooctane

> <PUBCHEM_IUPAC_CAS_NAME>
1,2,5,6-tetrabromocyclooctane

> <PUBCHEM_IUPAC_NAME_MARKUP>
1,2,5,6-tetrabromocyclooctane

> <PUBCHEM_IUPAC_NAME>
1,2,5,6-tetrabromocyclooctane

> <PUBCHEM_IUPAC_SYSTEMATIC_NAME>
1,2,5,6-tetrakis(bromanyl)cyclooctane

> <PUBCHEM_IUPAC_TRADITIONAL_NAME>
1,2,5,6-tetrabromocyclooctane

> <PUBCHEM_IUPAC_INCHI>
InChI=1S/C8H12Br4/c9-5-1-2-6(10)8(12)4-3-7(5)11/h5-8H,1-4H2

> <PUBCHEM_IUPAC_INCHIKEY>
RZLXIANUDLLFHN-UHFFFAOYSA-N

> <PUBCHEM_XLOGP3_AA>
4.7

> <PUBCHEM_EXACT_MASS>
427.76315

> <PUBCHEM_MOLECULAR_FORMULA>
C8H12Br4

> <PUBCHEM_MOLECULAR_WEIGHT>
427.80

> <PUBCHEM_SMILES>
C1CC(C(CCC(C1Br)Br)Br)Br

> <PUBCHEM_CONNECTIVITY_SMILES>
C1CC(C(CCC(C1Br)Br)Br)Br

> <PUBCHEM_CACTVS_TPSA>
0

> <PUBCHEM_MONOISOTOPIC_WEIGHT>
423.76725

> <PUBCHEM_TOTAL_CHARGE>
0

> <PUBCHEM_HEAVY_ATOM_COUNT>
12

> <PUBCHEM_ATOM_DEF_STEREO_COUNT>
0

> <PUBCHEM_ATOM_UDEF_STEREO_COUNT>
4

> <PUBCHEM_BOND_DEF_STEREO_COUNT>
0

> <PUBCHEM_BOND_UDEF_STEREO_COUNT>
0

> <PUBCHEM_ISOTOPIC_ATOM_COUNT>
0

> <PUBCHEM_COMPONENT_COUNT>
1

> <PUBCHEM_CACTVS_TAUTO_COUNT>
-1

> <PUBCHEM_COORDINATE_TYPE>
1
5
255

> <PUBCHEM_BONDANNOTATIONS>
5  1  3
6  2  3
7  3  3
8  4  3

$$$$
