3015513
  -OEChem-05122609172D

 40 40  0     0  0  0  0  0  0999 V2000
    3.0000   -4.0950    0.0000 O   0  0  0  0  0  0  0  0  0  0  0  0
    3.0000   -0.0950    0.0000 C   0  0  0  0  0  0  0  0  0  0  0  0
    3.0000    0.9050    0.0000 C   0  0  0  0  0  0  0  0  0  0  0  0
    3.8660    1.4050    0.0000 C   0  0  0  0  0  0  0  0  0  0  0  0
    3.0000   -1.0950    0.0000 C   0  0  0  0  0  0  0  0  0  0  0  0
    3.8660    2.4050    0.0000 C   0  0  0  0  0  0  0  0  0  0  0  0
    4.0000   -0.0950    0.0000 C   0  0  0  0  0  0  0  0  0  0  0  0
    2.0000   -0.0950    0.0000 C   0  0  0  0  0  0  0  0  0  0  0  0
    4.7321    2.9050    0.0000 C   0  0  0  0  0  0  0  0  0  0  0  0
    2.1340   -1.5950    0.0000 C   0  0  0  0  0  0  0  0  0  0  0  0
    3.8660   -1.5950    0.0000 C   0  0  0  0  0  0  0  0  0  0  0  0
    4.7321    3.9050    0.0000 C   0  0  0  0  0  0  0  0  0  0  0  0
    2.1340   -2.5950    0.0000 C   0  0  0  0  0  0  0  0  0  0  0  0
    3.8660   -2.5950    0.0000 C   0  0  0  0  0  0  0  0  0  0  0  0
    5.5981    4.4050    0.0000 C   0  0  0  0  0  0  0  0  0  0  0  0
    3.0000   -3.0950    0.0000 C   0  0  0  0  0  0  0  0  0  0  0  0
    2.7880    1.4876    0.0000 H   0  0  0  0  0  0  0  0  0  0  0  0
    2.3894    0.7973    0.0000 H   0  0  0  0  0  0  0  0  0  0  0  0
    4.0781    0.8224    0.0000 H   0  0  0  0  0  0  0  0  0  0  0  0
    4.4766    1.5127    0.0000 H   0  0  0  0  0  0  0  0  0  0  0  0
    3.6540    2.9876    0.0000 H   0  0  0  0  0  0  0  0  0  0  0  0
    3.2554    2.2973    0.0000 H   0  0  0  0  0  0  0  0  0  0  0  0
    4.0000   -0.7150    0.0000 H   0  0  0  0  0  0  0  0  0  0  0  0
    4.6200   -0.0950    0.0000 H   0  0  0  0  0  0  0  0  0  0  0  0
    4.0000    0.5250    0.0000 H   0  0  0  0  0  0  0  0  0  0  0  0
    2.0000    0.5250    0.0000 H   0  0  0  0  0  0  0  0  0  0  0  0
    1.3800   -0.0950    0.0000 H   0  0  0  0  0  0  0  0  0  0  0  0
    2.0000   -0.7150    0.0000 H   0  0  0  0  0  0  0  0  0  0  0  0
    4.9441    2.3224    0.0000 H   0  0  0  0  0  0  0  0  0  0  0  0
    5.3426    3.0127    0.0000 H   0  0  0  0  0  0  0  0  0  0  0  0
    1.5970   -1.2850    0.0000 H   0  0  0  0  0  0  0  0  0  0  0  0
    4.4030   -1.2850    0.0000 H   0  0  0  0  0  0  0  0  0  0  0  0
    4.5200    4.4876    0.0000 H   0  0  0  0  0  0  0  0  0  0  0  0
    4.1215    3.7973    0.0000 H   0  0  0  0  0  0  0  0  0  0  0  0
    1.5970   -2.9050    0.0000 H   0  0  0  0  0  0  0  0  0  0  0  0
    4.4030   -2.9050    0.0000 H   0  0  0  0  0  0  0  0  0  0  0  0
    5.9081    3.8681    0.0000 H   0  0  0  0  0  0  0  0  0  0  0  0
    6.1350    4.7150    0.0000 H   0  0  0  0  0  0  0  0  0  0  0  0
    5.2881    4.9419    0.0000 H   0  0  0  0  0  0  0  0  0  0  0  0
    2.4631   -4.4050    0.0000 H   0  0  0  0  0  0  0  0  0  0  0  0
  1 16  1  0  0  0  0
  1 40  1  0  0  0  0
  2  3  1  0  0  0  0
  2  5  1  0  0  0  0
  2  7  1  0  0  0  0
  2  8  1  0  0  0  0
  3  4  1  0  0  0  0
  3 17  1  0  0  0  0
  3 18  1  0  0  0  0
  4  6  1  0  0  0  0
  4 19  1  0  0  0  0
  4 20  1  0  0  0  0
  5 10  2  0  0  0  0
  5 11  1  0  0  0  0
  6  9  1  0  0  0  0
  6 21  1  0  0  0  0
  6 22  1  0  0  0  0
  7 23  1  0  0  0  0
  7 24  1  0  0  0  0
  7 25  1  0  0  0  0
  8 26  1  0  0  0  0
  8 27  1  0  0  0  0
  8 28  1  0  0  0  0
  9 12  1  0  0  0  0
  9 29  1  0  0  0  0
  9 30  1  0  0  0  0
 10 13  1  0  0  0  0
 10 31  1  0  0  0  0
 11 14  2  0  0  0  0
 11 32  1  0  0  0  0
 12 15  1  0  0  0  0
 12 33  1  0  0  0  0
 12 34  1  0  0  0  0
 13 16  2  0  0  0  0
 13 35  1  0  0  0  0
 14 16  1  0  0  0  0
 14 36  1  0  0  0  0
 15 37  1  0  0  0  0
 15 38  1  0  0  0  0
 15 39  1  0  0  0  0
M  END
> <PUBCHEM_COMPOUND_CID>
3015513

> <PUBCHEM_COMPOUND_CANONICALIZED>
1

> <PUBCHEM_CACTVS_COMPLEXITY>
178

> <PUBCHEM_CACTVS_HBOND_ACCEPTOR>
1

> <PUBCHEM_CACTVS_HBOND_DONOR>
1

> <PUBCHEM_CACTVS_ROTATABLE_BOND>
6

> <PUBCHEM_CACTVS_SUBSKEYS>
AAADceBwIAAAAAAAAAAAAAAAAAAAAAAAAAAwAAAAAAAAAAABAAAAGgAACAAADgSAmAAyBoAAAgCAAiBCAAACAAAgIAAIiAAGCIgIJiKCERKAcAAkwBEImAeAwPAPoAAAAAAAAABAAAAAAAAAAAAAAAAAAA==

> <PUBCHEM_IUPAC_OPENEYE_NAME>
4-(1,1-dimethylheptyl)phenol

> <PUBCHEM_IUPAC_CAS_NAME>
4-(2-methyloctan-2-yl)phenol

> <PUBCHEM_IUPAC_NAME_MARKUP>
4-(2-methyloctan-2-yl)phenol

> <PUBCHEM_IUPAC_NAME>
4-(2-methyloctan-2-yl)phenol

> <PUBCHEM_IUPAC_SYSTEMATIC_NAME>
4-(2-methyloctan-2-yl)phenol

> <PUBCHEM_IUPAC_TRADITIONAL_NAME>
4-(1,1-dimethylheptyl)phenol

> <PUBCHEM_IUPAC_INCHI>
InChI=1S/C15H24O/c1-4-5-6-7-12-15(2,3)13-8-10-14(16)11-9-13/h8-11,16H,4-7,12H2,1-3H3

> <PUBCHEM_IUPAC_INCHIKEY>
IJWXCYSPVNCDMA-UHFFFAOYSA-N

> <PUBCHEM_XLOGP3_AA>
5.9

> <PUBCHEM_EXACT_MASS>
220.182715385

> <PUBCHEM_MOLECULAR_FORMULA>
C15H24O

> <PUBCHEM_MOLECULAR_WEIGHT>
220.35

> <PUBCHEM_SMILES>
CCCCCCC(C)(C)C1=CC=C(C=C1)O

> <PUBCHEM_CONNECTIVITY_SMILES>
CCCCCCC(C)(C)C1=CC=C(C=C1)O

> <PUBCHEM_CACTVS_TPSA>
20.2

> <PUBCHEM_MONOISOTOPIC_WEIGHT>
220.182715385

> <PUBCHEM_TOTAL_CHARGE>
0

> <PUBCHEM_HEAVY_ATOM_COUNT>
16

> <PUBCHEM_ATOM_DEF_STEREO_COUNT>
0

> <PUBCHEM_ATOM_UDEF_STEREO_COUNT>
0

> <PUBCHEM_BOND_DEF_STEREO_COUNT>
0

> <PUBCHEM_BOND_UDEF_STEREO_COUNT>
0

> <PUBCHEM_ISOTOPIC_ATOM_COUNT>
0

> <PUBCHEM_COMPONENT_COUNT>
1

> <PUBCHEM_CACTVS_TAUTO_COUNT>
-1

> <PUBCHEM_COORDINATE_TYPE>
1
5
255

> <PUBCHEM_BONDANNOTATIONS>
10  13  8
11  14  8
13  16  8
14  16  8
5  10  8
5  11  8

$$$$
