3017844
  -OEChem-05122608192D

 62 61  0     0  0  0  0  0  0999 V2000
   10.1603    0.5490    0.0000 F   0  0  0  0  0  0  0  0  0  0  0  0
   11.1603   -1.1830    0.0000 F   0  0  0  0  0  0  0  0  0  0  0  0
   12.0263   -0.6830    0.0000 F   0  0  0  0  0  0  0  0  0  0  0  0
   11.0263    1.0490    0.0000 F   0  0  0  0  0  0  0  0  0  0  0  0
    9.2942    0.0490    0.0000 F   0  0  0  0  0  0  0  0  0  0  0  0
   10.2942   -1.6830    0.0000 F   0  0  0  0  0  0  0  0  0  0  0  0
   12.8923   -0.1830    0.0000 F   0  0  0  0  0  0  0  0  0  0  0  0
   11.8923    1.5490    0.0000 F   0  0  0  0  0  0  0  0  0  0  0  0
    8.4282   -0.4510    0.0000 F   0  0  0  0  0  0  0  0  0  0  0  0
    9.4282   -2.1830    0.0000 F   0  0  0  0  0  0  0  0  0  0  0  0
   13.7583    0.3170    0.0000 F   0  0  0  0  0  0  0  0  0  0  0  0
   12.7583    2.0490    0.0000 F   0  0  0  0  0  0  0  0  0  0  0  0
    7.5622   -0.9510    0.0000 F   0  0  0  0  0  0  0  0  0  0  0  0
    8.5622   -2.6830    0.0000 F   0  0  0  0  0  0  0  0  0  0  0  0
   14.6244    0.8170    0.0000 F   0  0  0  0  0  0  0  0  0  0  0  0
   13.6244    2.5490    0.0000 F   0  0  0  0  0  0  0  0  0  0  0  0
    6.6962   -1.4510    0.0000 F   0  0  0  0  0  0  0  0  0  0  0  0
    7.6962   -3.1830    0.0000 F   0  0  0  0  0  0  0  0  0  0  0  0
   15.4904    1.3170    0.0000 F   0  0  0  0  0  0  0  0  0  0  0  0
   14.4904    3.0490    0.0000 F   0  0  0  0  0  0  0  0  0  0  0  0
    5.8301   -1.9510    0.0000 F   0  0  0  0  0  0  0  0  0  0  0  0
    6.8301   -3.6830    0.0000 F   0  0  0  0  0  0  0  0  0  0  0  0
   16.3564    1.8170    0.0000 F   0  0  0  0  0  0  0  0  0  0  0  0
   15.3564    3.5490    0.0000 F   0  0  0  0  0  0  0  0  0  0  0  0
    4.9641   -2.4510    0.0000 F   0  0  0  0  0  0  0  0  0  0  0  0
    5.9641   -4.1830    0.0000 F   0  0  0  0  0  0  0  0  0  0  0  0
   17.2224    2.3170    0.0000 F   0  0  0  0  0  0  0  0  0  0  0  0
   16.2224    4.0490    0.0000 F   0  0  0  0  0  0  0  0  0  0  0  0
    4.0981   -2.9510    0.0000 F   0  0  0  0  0  0  0  0  0  0  0  0
    5.0981   -4.6830    0.0000 F   0  0  0  0  0  0  0  0  0  0  0  0
   18.0885    2.8170    0.0000 F   0  0  0  0  0  0  0  0  0  0  0  0
   17.0885    4.5490    0.0000 F   0  0  0  0  0  0  0  0  0  0  0  0
    3.2321   -3.4510    0.0000 F   0  0  0  0  0  0  0  0  0  0  0  0
    4.2321   -5.1830    0.0000 F   0  0  0  0  0  0  0  0  0  0  0  0
   18.9545    3.3170    0.0000 F   0  0  0  0  0  0  0  0  0  0  0  0
   17.9545    5.0490    0.0000 F   0  0  0  0  0  0  0  0  0  0  0  0
    2.0000   -5.3170    0.0000 F   0  0  0  0  0  0  0  0  0  0  0  0
    2.3660   -3.9510    0.0000 F   0  0  0  0  0  0  0  0  0  0  0  0
    3.3660   -5.6830    0.0000 F   0  0  0  0  0  0  0  0  0  0  0  0
   20.1865    4.1830    0.0000 O   0  0  0  0  0  0  0  0  0  0  0  0
   19.3205    5.6830    0.0000 O   0  0  0  0  0  0  0  0  0  0  0  0
   10.6603   -0.3170    0.0000 C   0  0  0  0  0  0  0  0  0  0  0  0
   11.5263    0.1830    0.0000 C   0  0  0  0  0  0  0  0  0  0  0  0
    9.7942   -0.8170    0.0000 C   0  0  0  0  0  0  0  0  0  0  0  0
   12.3923    0.6830    0.0000 C   0  0  0  0  0  0  0  0  0  0  0  0
    8.9282   -1.3170    0.0000 C   0  0  0  0  0  0  0  0  0  0  0  0
   13.2583    1.1830    0.0000 C   0  0  0  0  0  0  0  0  0  0  0  0
    8.0622   -1.8170    0.0000 C   0  0  0  0  0  0  0  0  0  0  0  0
   14.1244    1.6830    0.0000 C   0  0  0  0  0  0  0  0  0  0  0  0
    7.1962   -2.3170    0.0000 C   0  0  0  0  0  0  0  0  0  0  0  0
   14.9904    2.1830    0.0000 C   0  0  0  0  0  0  0  0  0  0  0  0
    6.3301   -2.8170    0.0000 C   0  0  0  0  0  0  0  0  0  0  0  0
   15.8564    2.6830    0.0000 C   0  0  0  0  0  0  0  0  0  0  0  0
    5.4641   -3.3170    0.0000 C   0  0  0  0  0  0  0  0  0  0  0  0
   16.7224    3.1830    0.0000 C   0  0  0  0  0  0  0  0  0  0  0  0
    4.5981   -3.8170    0.0000 C   0  0  0  0  0  0  0  0  0  0  0  0
   17.5885    3.6830    0.0000 C   0  0  0  0  0  0  0  0  0  0  0  0
    3.7321   -4.3170    0.0000 C   0  0  0  0  0  0  0  0  0  0  0  0
   18.4545    4.1830    0.0000 C   0  0  0  0  0  0  0  0  0  0  0  0
    2.8660   -4.8170    0.0000 C   0  0  0  0  0  0  0  0  0  0  0  0
   19.3205    4.6830    0.0000 C   0  0  0  0  0  0  0  0  0  0  0  0
   20.7235    4.4930    0.0000 H   0  0  0  0  0  0  0  0  0  0  0  0
  1 42  1  0  0  0  0
  2 42  1  0  0  0  0
  3 43  1  0  0  0  0
  4 43  1  0  0  0  0
  5 44  1  0  0  0  0
  6 44  1  0  0  0  0
  7 45  1  0  0  0  0
  8 45  1  0  0  0  0
  9 46  1  0  0  0  0
 10 46  1  0  0  0  0
 11 47  1  0  0  0  0
 12 47  1  0  0  0  0
 13 48  1  0  0  0  0
 14 48  1  0  0  0  0
 15 49  1  0  0  0  0
 16 49  1  0  0  0  0
 17 50  1  0  0  0  0
 18 50  1  0  0  0  0
 19 51  1  0  0  0  0
 20 51  1  0  0  0  0
 21 52  1  0  0  0  0
 22 52  1  0  0  0  0
 23 53  1  0  0  0  0
 24 53  1  0  0  0  0
 25 54  1  0  0  0  0
 26 54  1  0  0  0  0
 27 55  1  0  0  0  0
 28 55  1  0  0  0  0
 29 56  1  0  0  0  0
 30 56  1  0  0  0  0
 31 57  1  0  0  0  0
 32 57  1  0  0  0  0
 33 58  1  0  0  0  0
 34 58  1  0  0  0  0
 35 59  1  0  0  0  0
 36 59  1  0  0  0  0
 37 60  1  0  0  0  0
 38 60  1  0  0  0  0
 39 60  1  0  0  0  0
 40 61  1  0  0  0  0
 40 62  1  0  0  0  0
 41 61  2  0  0  0  0
 42 43  1  0  0  0  0
 42 44  1  0  0  0  0
 43 45  1  0  0  0  0
 44 46  1  0  0  0  0
 45 47  1  0  0  0  0
 46 48  1  0  0  0  0
 47 49  1  0  0  0  0
 48 50  1  0  0  0  0
 49 51  1  0  0  0  0
 50 52  1  0  0  0  0
 51 53  1  0  0  0  0
 52 54  1  0  0  0  0
 53 55  1  0  0  0  0
 54 56  1  0  0  0  0
 55 57  1  0  0  0  0
 56 58  1  0  0  0  0
 57 59  1  0  0  0  0
 58 60  1  0  0  0  0
 59 61  1  0  0  0  0
M  END
> <PUBCHEM_COMPOUND_CID>
3017844

> <PUBCHEM_COMPOUND_CANONICALIZED>
1

> <PUBCHEM_CACTVS_COMPLEXITY>
1640

> <PUBCHEM_CACTVS_HBOND_ACCEPTOR>
41

> <PUBCHEM_CACTVS_HBOND_DONOR>
1

> <PUBCHEM_CACTVS_ROTATABLE_BOND>
18

> <PUBCHEM_CACTVS_SUBSKEYS>
AAADcQB4McAAAAAAAAAAAAAAAAAAAAAAAAAAAAAAAAAAAAAAAAAACwAACAAACAAAgBAACAAAAgAIAACQCAAAAAAAAAAAAAEAAAAAABIAAAAAQAAEAAAAAAGIyKCAAAAAAAAAAAAAAAAAAAAAAAAAAAAAAA==

> <PUBCHEM_IUPAC_OPENEYE_NAME>
2,2,3,3,4,4,5,5,6,6,7,7,8,8,9,9,10,10,11,11,12,12,13,13,14,14,15,15,16,16,17,17,18,18,19,19,20,20,20-nonatriacontafluoroicosanoic acid

> <PUBCHEM_IUPAC_CAS_NAME>
2,2,3,3,4,4,5,5,6,6,7,7,8,8,9,9,10,10,11,11,12,12,13,13,14,14,15,15,16,16,17,17,18,18,19,19,20,20,20-nonatriacontafluoroeicosanoic acid

> <PUBCHEM_IUPAC_NAME_MARKUP>
2,2,3,3,4,4,5,5,6,6,7,7,8,8,9,9,10,10,11,11,12,12,13,13,14,14,15,15,16,16,17,17,18,18,19,19,20,20,20-nonatriacontafluoroicosanoic acid

> <PUBCHEM_IUPAC_NAME>
2,2,3,3,4,4,5,5,6,6,7,7,8,8,9,9,10,10,11,11,12,12,13,13,14,14,15,15,16,16,17,17,18,18,19,19,20,20,20-nonatriacontafluoroicosanoic acid

> <PUBCHEM_IUPAC_SYSTEMATIC_NAME>
2,2,3,3,4,4,5,5,6,6,7,7,8,8,9,9,10,10,11,11,12,12,13,13,14,14,15,15,16,16,17,17,18,18,19,19,20,20,20-nonatriacontakis(fluoranyl)icosanoic acid

> <PUBCHEM_IUPAC_TRADITIONAL_NAME>
2,2,3,3,4,4,5,5,6,6,7,7,8,8,9,9,10,10,11,11,12,12,13,13,14,14,15,15,16,16,17,17,18,18,19,19,20,20,20-nonatriacontafluoroarachidic acid

> <PUBCHEM_IUPAC_INCHI>
InChI=1S/C20HF39O2/c21-2(22,1(60)61)3(23,24)4(25,26)5(27,28)6(29,30)7(31,32)8(33,34)9(35,36)10(37,38)11(39,40)12(41,42)13(43,44)14(45,46)15(47,48)16(49,50)17(51,52)18(53,54)19(55,56)20(57,58)59/h(H,60,61)

> <PUBCHEM_IUPAC_INCHIKEY>
VLLYHFSAJNIONB-UHFFFAOYSA-N

> <PUBCHEM_XLOGP3_AA>
13

> <PUBCHEM_EXACT_MASS>
1013.9353776

> <PUBCHEM_MOLECULAR_FORMULA>
C20HF39O2

> <PUBCHEM_MOLECULAR_WEIGHT>
1014.2

> <PUBCHEM_SMILES>
C(=O)(C(C(C(C(C(C(C(C(C(C(C(C(C(C(C(C(C(C(C(F)(F)F)(F)F)(F)F)(F)F)(F)F)(F)F)(F)F)(F)F)(F)F)(F)F)(F)F)(F)F)(F)F)(F)F)(F)F)(F)F)(F)F)(F)F)(F)F)O

> <PUBCHEM_CONNECTIVITY_SMILES>
C(=O)(C(C(C(C(C(C(C(C(C(C(C(C(C(C(C(C(C(C(C(F)(F)F)(F)F)(F)F)(F)F)(F)F)(F)F)(F)F)(F)F)(F)F)(F)F)(F)F)(F)F)(F)F)(F)F)(F)F)(F)F)(F)F)(F)F)(F)F)O

> <PUBCHEM_CACTVS_TPSA>
37.3

> <PUBCHEM_MONOISOTOPIC_WEIGHT>
1013.9353776

> <PUBCHEM_TOTAL_CHARGE>
0

> <PUBCHEM_HEAVY_ATOM_COUNT>
61

> <PUBCHEM_ATOM_DEF_STEREO_COUNT>
0

> <PUBCHEM_ATOM_UDEF_STEREO_COUNT>
0

> <PUBCHEM_BOND_DEF_STEREO_COUNT>
0

> <PUBCHEM_BOND_UDEF_STEREO_COUNT>
0

> <PUBCHEM_ISOTOPIC_ATOM_COUNT>
0

> <PUBCHEM_COMPONENT_COUNT>
1

> <PUBCHEM_CACTVS_TAUTO_COUNT>
-1

> <PUBCHEM_COORDINATE_TYPE>
1
5
255

$$$$
