3022201
  -OEChem-05122609512D

 18 17  0     0  0  0  0  0  0999 V2000
    5.4378    0.9330    0.0000 S   0  0  0  0  0  0  0  0  0  0  0  0
    4.2057   -0.9330    0.0000 F   0  0  0  0  0  0  0  0  0  0  0  0
    4.3981    1.4178    0.0000 F   0  0  0  0  0  0  0  0  0  0  0  0
    5.0718   -0.4330    0.0000 F   0  0  0  0  0  0  0  0  0  0  0  0
    2.7057   -1.7990    0.0000 F   0  0  0  0  0  0  0  0  0  0  0  0
    2.3397   -0.4330    0.0000 F   0  0  0  0  0  0  0  0  0  0  0  0
    3.7058   -1.7991    0.0000 F   0  0  0  0  0  0  0  0  0  0  0  0
    2.1736    1.2186    0.0000 F   0  0  0  0  0  0  0  0  0  0  0  0
    3.5825    1.3419    0.0000 F   0  0  0  0  0  0  0  0  0  0  0  0
    2.0000    0.2338    0.0000 F   0  0  0  0  0  0  0  0  0  0  0  0
    6.3038    1.4330    0.0000 O   0  0  0  0  0  0  0  0  0  0  0  0
    5.9378    0.0670    0.0000 O   0  0  0  0  0  0  0  0  0  0  0  0
    4.9378    1.7991    0.0000 O   0  0  0  0  0  0  0  0  0  0  0  0
    3.7057   -0.0670    0.0000 C   0  0  0  0  0  0  0  0  0  0  0  0
    4.5718    0.4330    0.0000 C   0  0  0  0  0  0  0  0  0  0  0  0
    3.2057   -0.9330    0.0000 C   0  0  0  0  0  0  0  0  0  0  0  0
    2.9397    0.5758    0.0000 C   0  0  0  0  0  0  0  0  0  0  0  0
    6.8407    1.1230    0.0000 H   0  0  0  0  0  0  0  0  0  0  0  0
  1 11  1  0  0  0  0
  1 12  2  0  0  0  0
  1 13  2  0  0  0  0
  1 15  1  0  0  0  0
  2 14  1  0  0  0  0
  3 15  1  0  0  0  0
  4 15  1  0  0  0  0
  5 16  1  0  0  0  0
  6 16  1  0  0  0  0
  7 16  1  0  0  0  0
  8 17  1  0  0  0  0
  9 17  1  0  0  0  0
 10 17  1  0  0  0  0
 11 18  1  0  0  0  0
 14 15  1  0  0  0  0
 14 16  1  0  0  0  0
 14 17  1  0  0  0  0
M  END
> <PUBCHEM_COMPOUND_CID>
3022201

> <PUBCHEM_COMPOUND_CANONICALIZED>
1

> <PUBCHEM_CACTVS_COMPLEXITY>
370

> <PUBCHEM_CACTVS_HBOND_ACCEPTOR>
12

> <PUBCHEM_CACTVS_HBOND_DONOR>
1

> <PUBCHEM_CACTVS_ROTATABLE_BOND>
2

> <PUBCHEM_CACTVS_SUBSKEYS>
AAADcQBgMcBAAAAAAAAAAAAAAAAAAAAAAAAAAAAAAAAAAAAAAAAACQQACAAADAAAQBAAAAAAAIIAAAAAAHBAAAAAAAAAAAAAAAAAAAAAAAAAAAAAAAAAAAAAAAAAAAAAAAAAAAAAAAAAAAAAAAAAAAAAAA==

> <PUBCHEM_IUPAC_OPENEYE_NAME>
1,1,2,3,3,3-hexafluoro-2-(trifluoromethyl)propane-1-sulfonic acid

> <PUBCHEM_IUPAC_CAS_NAME>
1,1,2,3,3,3-hexafluoro-2-(trifluoromethyl)-1-propanesulfonic acid

> <PUBCHEM_IUPAC_NAME_MARKUP>
1,1,2,3,3,3-hexafluoro-2-(trifluoromethyl)propane-1-sulfonic acid

> <PUBCHEM_IUPAC_NAME>
1,1,2,3,3,3-hexafluoro-2-(trifluoromethyl)propane-1-sulfonic acid

> <PUBCHEM_IUPAC_SYSTEMATIC_NAME>
1,1,2,3,3,3-hexakis(fluoranyl)-2-(trifluoromethyl)propane-1-sulfonic acid

> <PUBCHEM_IUPAC_TRADITIONAL_NAME>
1,1,2,3,3,3-hexafluoro-2-(trifluoromethyl)propane-1-sulfonic acid

> <PUBCHEM_IUPAC_INCHI>
InChI=1S/C4HF9O3S/c5-1(2(6,7)8,3(9,10)11)4(12,13)17(14,15)16/h(H,14,15,16)

> <PUBCHEM_IUPAC_INCHIKEY>
GWJVUODILLGCGD-UHFFFAOYSA-N

> <PUBCHEM_XLOGP3_AA>
2.3

> <PUBCHEM_EXACT_MASS>
299.95026852

> <PUBCHEM_MOLECULAR_FORMULA>
C4HF9O3S

> <PUBCHEM_MOLECULAR_WEIGHT>
300.10

> <PUBCHEM_SMILES>
C(C(F)(F)F)(C(F)(F)F)(C(F)(F)S(=O)(=O)O)F

> <PUBCHEM_CONNECTIVITY_SMILES>
C(C(F)(F)F)(C(F)(F)F)(C(F)(F)S(=O)(=O)O)F

> <PUBCHEM_CACTVS_TPSA>
62.8

> <PUBCHEM_MONOISOTOPIC_WEIGHT>
299.95026852

> <PUBCHEM_TOTAL_CHARGE>
0

> <PUBCHEM_HEAVY_ATOM_COUNT>
17

> <PUBCHEM_ATOM_DEF_STEREO_COUNT>
0

> <PUBCHEM_ATOM_UDEF_STEREO_COUNT>
0

> <PUBCHEM_BOND_DEF_STEREO_COUNT>
0

> <PUBCHEM_BOND_UDEF_STEREO_COUNT>
0

> <PUBCHEM_ISOTOPIC_ATOM_COUNT>
0

> <PUBCHEM_COMPONENT_COUNT>
1

> <PUBCHEM_CACTVS_TAUTO_COUNT>
-1

> <PUBCHEM_COORDINATE_TYPE>
1
5
255

$$$$
