3033849
  -OEChem-05122608202D

 38 37  0     0  0  0  0  0  0999 V2000
    6.3301   -0.2500    0.0000 C   0  0  0  0  0  0  0  0  0  0  0  0
    7.1962    0.2500    0.0000 C   0  0  0  0  0  0  0  0  0  0  0  0
    5.4641   -0.7500    0.0000 C   0  0  0  0  0  0  0  0  0  0  0  0
    5.8301    0.6160    0.0000 C   0  0  0  0  0  0  0  0  0  0  0  0
    6.8301   -1.1160    0.0000 C   0  0  0  0  0  0  0  0  0  0  0  0
    4.5981   -0.2500    0.0000 C   0  0  0  0  0  0  0  0  0  0  0  0
    8.0622    0.7500    0.0000 C   0  0  0  0  0  0  0  0  0  0  0  0
    6.6962    1.1160    0.0000 C   0  0  0  0  0  0  0  0  0  0  0  0
    7.6962   -0.6160    0.0000 C   0  0  0  0  0  0  0  0  0  0  0  0
    3.7321   -0.7500    0.0000 C   0  0  0  0  0  0  0  0  0  0  0  0
    2.8660   -0.2500    0.0000 C   0  0  0  0  0  0  0  0  0  0  0  0
    2.0000   -0.7500    0.0000 C   0  0  0  0  0  0  0  0  0  0  0  0
    5.0656   -1.2250    0.0000 H   0  0  0  0  0  0  0  0  0  0  0  0
    5.8626   -1.2250    0.0000 H   0  0  0  0  0  0  0  0  0  0  0  0
    6.3671    0.9260    0.0000 H   0  0  0  0  0  0  0  0  0  0  0  0
    5.5201    1.1530    0.0000 H   0  0  0  0  0  0  0  0  0  0  0  0
    5.2932    0.3060    0.0000 H   0  0  0  0  0  0  0  0  0  0  0  0
    6.2932   -1.4260    0.0000 H   0  0  0  0  0  0  0  0  0  0  0  0
    7.1401   -1.6530    0.0000 H   0  0  0  0  0  0  0  0  0  0  0  0
    7.3671   -0.8060    0.0000 H   0  0  0  0  0  0  0  0  0  0  0  0
    4.9966    0.2249    0.0000 H   0  0  0  0  0  0  0  0  0  0  0  0
    4.1996    0.2249    0.0000 H   0  0  0  0  0  0  0  0  0  0  0  0
    8.3722    0.2131    0.0000 H   0  0  0  0  0  0  0  0  0  0  0  0
    8.5991    1.0600    0.0000 H   0  0  0  0  0  0  0  0  0  0  0  0
    7.7522    1.2869    0.0000 H   0  0  0  0  0  0  0  0  0  0  0  0
    7.2331    1.4260    0.0000 H   0  0  0  0  0  0  0  0  0  0  0  0
    6.3862    1.6530    0.0000 H   0  0  0  0  0  0  0  0  0  0  0  0
    6.1592    0.8060    0.0000 H   0  0  0  0  0  0  0  0  0  0  0  0
    7.1592   -0.9260    0.0000 H   0  0  0  0  0  0  0  0  0  0  0  0
    8.0062   -1.1530    0.0000 H   0  0  0  0  0  0  0  0  0  0  0  0
    8.2331   -0.3060    0.0000 H   0  0  0  0  0  0  0  0  0  0  0  0
    3.3335   -1.2250    0.0000 H   0  0  0  0  0  0  0  0  0  0  0  0
    4.1306   -1.2250    0.0000 H   0  0  0  0  0  0  0  0  0  0  0  0
    3.2646    0.2249    0.0000 H   0  0  0  0  0  0  0  0  0  0  0  0
    2.4675    0.2249    0.0000 H   0  0  0  0  0  0  0  0  0  0  0  0
    1.6900   -0.2131    0.0000 H   0  0  0  0  0  0  0  0  0  0  0  0
    1.4631   -1.0600    0.0000 H   0  0  0  0  0  0  0  0  0  0  0  0
    2.3100   -1.2869    0.0000 H   0  0  0  0  0  0  0  0  0  0  0  0
  1  2  1  0  0  0  0
  1  3  1  0  0  0  0
  1  4  1  0  0  0  0
  1  5  1  0  0  0  0
  2  7  1  0  0  0  0
  2  8  1  0  0  0  0
  2  9  1  0  0  0  0
  3  6  1  0  0  0  0
  3 13  1  0  0  0  0
  3 14  1  0  0  0  0
  4 15  1  0  0  0  0
  4 16  1  0  0  0  0
  4 17  1  0  0  0  0
  5 18  1  0  0  0  0
  5 19  1  0  0  0  0
  5 20  1  0  0  0  0
  6 10  1  0  0  0  0
  6 21  1  0  0  0  0
  6 22  1  0  0  0  0
  7 23  1  0  0  0  0
  7 24  1  0  0  0  0
  7 25  1  0  0  0  0
  8 26  1  0  0  0  0
  8 27  1  0  0  0  0
  8 28  1  0  0  0  0
  9 29  1  0  0  0  0
  9 30  1  0  0  0  0
  9 31  1  0  0  0  0
 10 11  1  0  0  0  0
 10 32  1  0  0  0  0
 10 33  1  0  0  0  0
 11 12  1  0  0  0  0
 11 34  1  0  0  0  0
 11 35  1  0  0  0  0
 12 36  1  0  0  0  0
 12 37  1  0  0  0  0
 12 38  1  0  0  0  0
M  END
> <PUBCHEM_COMPOUND_CID>
3033849

> <PUBCHEM_COMPOUND_CANONICALIZED>
1

> <PUBCHEM_CACTVS_COMPLEXITY>
114

> <PUBCHEM_CACTVS_HBOND_ACCEPTOR>
0

> <PUBCHEM_CACTVS_HBOND_DONOR>
0

> <PUBCHEM_CACTVS_ROTATABLE_BOND>
5

> <PUBCHEM_CACTVS_SUBSKEYS>
AAADceBwAAAAAAAAAAAAAAAAAAAAAAAAAAAAAAAAAAAAAAAAAAAAGAAAAAAADgCAAAACAAAAAAAAAAAAAAAAAAAAAAAAAAAAAAAAAAIAAAAAAAAAAAAAAAEAgMAPgAAAAAAAAAAAAAAAAAAAAAAAAAAAAA==

> <PUBCHEM_IUPAC_OPENEYE_NAME>
2,2,3,3-tetramethyloctane

> <PUBCHEM_IUPAC_CAS_NAME>
2,2,3,3-tetramethyloctane

> <PUBCHEM_IUPAC_NAME_MARKUP>
2,2,3,3-tetramethyloctane

> <PUBCHEM_IUPAC_NAME>
2,2,3,3-tetramethyloctane

> <PUBCHEM_IUPAC_SYSTEMATIC_NAME>
2,2,3,3-tetramethyloctane

> <PUBCHEM_IUPAC_TRADITIONAL_NAME>
2,2,3,3-tetramethyloctane

> <PUBCHEM_IUPAC_INCHI>
InChI=1S/C12H26/c1-7-8-9-10-12(5,6)11(2,3)4/h7-10H2,1-6H3

> <PUBCHEM_IUPAC_INCHIKEY>
UXQAEOWCSOPBLF-UHFFFAOYSA-N

> <PUBCHEM_XLOGP3_AA>
5.8

> <PUBCHEM_EXACT_MASS>
170.203450829

> <PUBCHEM_MOLECULAR_FORMULA>
C12H26

> <PUBCHEM_MOLECULAR_WEIGHT>
170.33

> <PUBCHEM_SMILES>
CCCCCC(C)(C)C(C)(C)C

> <PUBCHEM_CONNECTIVITY_SMILES>
CCCCCC(C)(C)C(C)(C)C

> <PUBCHEM_CACTVS_TPSA>
0

> <PUBCHEM_MONOISOTOPIC_WEIGHT>
170.203450829

> <PUBCHEM_TOTAL_CHARGE>
0

> <PUBCHEM_HEAVY_ATOM_COUNT>
12

> <PUBCHEM_ATOM_DEF_STEREO_COUNT>
0

> <PUBCHEM_ATOM_UDEF_STEREO_COUNT>
0

> <PUBCHEM_BOND_DEF_STEREO_COUNT>
0

> <PUBCHEM_BOND_UDEF_STEREO_COUNT>
0

> <PUBCHEM_ISOTOPIC_ATOM_COUNT>
0

> <PUBCHEM_COMPONENT_COUNT>
1

> <PUBCHEM_CACTVS_TAUTO_COUNT>
-1

> <PUBCHEM_COORDINATE_TYPE>
1
5
255

$$$$
