3034475
  -OEChem-05122608102D

 39 40  0     1  0  0  0  0  0999 V2000
    7.3301   -4.6160    0.0000 O   0  0  0  0  0  0  0  0  0  0  0  0
    3.0000    4.6160    0.0000 O   0  0  0  0  0  0  0  0  0  0  0  0
    5.9641   -2.2500    0.0000 O   0  0  0  0  0  0  0  0  0  0  0  0
    3.3660    2.2500    0.0000 O   0  0  0  0  0  0  0  0  0  0  0  0
    4.2321   -0.2500    0.0000 O   0  0  0  0  0  0  0  0  0  0  0  0
    6.8301   -3.7500    0.0000 C   0  0  3  0  0  0  0  0  0  0  0  0
    2.5000    3.7500    0.0000 C   0  0  3  0  0  0  0  0  0  0  0  0
    7.8301   -3.7500    0.0000 C   0  0  0  0  0  0  0  0  0  0  0  0
    2.0000    4.6160    0.0000 C   0  0  0  0  0  0  0  0  0  0  0  0
    5.9641   -3.2500    0.0000 C   0  0  0  0  0  0  0  0  0  0  0  0
    2.5000    2.7500    0.0000 C   0  0  0  0  0  0  0  0  0  0  0  0
    5.0981   -1.7500    0.0000 C   0  0  3  0  0  0  0  0  0  0  0  0
    3.3660    1.2500    0.0000 C   0  0  3  0  0  0  0  0  0  0  0  0
    5.0981   -0.7500    0.0000 C   0  0  0  0  0  0  0  0  0  0  0  0
    4.2321    0.7500    0.0000 C   0  0  0  0  0  0  0  0  0  0  0  0
    4.2321   -2.2500    0.0000 C   0  0  0  0  0  0  0  0  0  0  0  0
    2.5000    0.7500    0.0000 C   0  0  0  0  0  0  0  0  0  0  0  0
    6.3917   -4.1884    0.0000 H   0  0  0  0  0  0  0  0  0  0  0  0
    3.0989    3.5895    0.0000 H   0  0  0  0  0  0  0  0  0  0  0  0
    8.4127   -3.9621    0.0000 H   0  0  0  0  0  0  0  0  0  0  0  0
    7.9378   -3.1394    0.0000 H   0  0  0  0  0  0  0  0  0  0  0  0
    1.8923    5.2266    0.0000 H   0  0  0  0  0  0  0  0  0  0  0  0
    1.4174    4.4040    0.0000 H   0  0  0  0  0  0  0  0  0  0  0  0
    5.3535   -3.1423    0.0000 H   0  0  0  0  0  0  0  0  0  0  0  0
    5.7521   -3.8326    0.0000 H   0  0  0  0  0  0  0  0  0  0  0  0
    1.8894    2.8577    0.0000 H   0  0  0  0  0  0  0  0  0  0  0  0
    2.2880    2.1674    0.0000 H   0  0  0  0  0  0  0  0  0  0  0  0
    5.0981   -2.3700    0.0000 H   0  0  0  0  0  0  0  0  0  0  0  0
    3.9030    1.5600    0.0000 H   0  0  0  0  0  0  0  0  0  0  0  0
    5.7087   -0.8577    0.0000 H   0  0  0  0  0  0  0  0  0  0  0  0
    5.3101   -0.1674    0.0000 H   0  0  0  0  0  0  0  0  0  0  0  0
    4.8426    0.6423    0.0000 H   0  0  0  0  0  0  0  0  0  0  0  0
    4.4441    1.3326    0.0000 H   0  0  0  0  0  0  0  0  0  0  0  0
    3.9221   -1.7131    0.0000 H   0  0  0  0  0  0  0  0  0  0  0  0
    3.6951   -2.5600    0.0000 H   0  0  0  0  0  0  0  0  0  0  0  0
    4.5421   -2.7869    0.0000 H   0  0  0  0  0  0  0  0  0  0  0  0
    2.1900    1.2869    0.0000 H   0  0  0  0  0  0  0  0  0  0  0  0
    1.9631    0.4400    0.0000 H   0  0  0  0  0  0  0  0  0  0  0  0
    2.8100    0.2131    0.0000 H   0  0  0  0  0  0  0  0  0  0  0  0
  1  6  1  0  0  0  0
  1  8  1  0  0  0  0
  2  7  1  0  0  0  0
  2  9  1  0  0  0  0
  3 10  1  0  0  0  0
  3 12  1  0  0  0  0
  4 11  1  0  0  0  0
  4 13  1  0  0  0  0
  5 14  1  0  0  0  0
  5 15  1  0  0  0  0
  6  8  1  0  0  0  0
  6 10  1  0  0  0  0
  6 18  1  0  0  0  0
  7  9  1  0  0  0  0
  7 11  1  0  0  0  0
  7 19  1  0  0  0  0
  8 20  1  0  0  0  0
  8 21  1  0  0  0  0
  9 22  1  0  0  0  0
  9 23  1  0  0  0  0
 10 24  1  0  0  0  0
 10 25  1  0  0  0  0
 11 26  1  0  0  0  0
 11 27  1  0  0  0  0
 12 14  1  0  0  0  0
 12 16  1  0  0  0  0
 12 28  1  0  0  0  0
 13 15  1  0  0  0  0
 13 17  1  0  0  0  0
 13 29  1  0  0  0  0
 14 30  1  0  0  0  0
 14 31  1  0  0  0  0
 15 32  1  0  0  0  0
 15 33  1  0  0  0  0
 16 34  1  0  0  0  0
 16 35  1  0  0  0  0
 16 36  1  0  0  0  0
 17 37  1  0  0  0  0
 17 38  1  0  0  0  0
 17 39  1  0  0  0  0
M  END
> <PUBCHEM_COMPOUND_CID>
3034475

> <PUBCHEM_COMPOUND_CANONICALIZED>
1

> <PUBCHEM_CACTVS_COMPLEXITY>
201

> <PUBCHEM_CACTVS_HBOND_ACCEPTOR>
5

> <PUBCHEM_CACTVS_HBOND_DONOR>
0

> <PUBCHEM_CACTVS_ROTATABLE_BOND>
10

> <PUBCHEM_CACTVS_SUBSKEYS>
AAADceBwOAAAAAAAAAAAAAAAEiQAAAAAAAAAAAAAAAAAAAAAAAAAGgAAAAAACBSggAICAAAABAAAAAAAAAAAAAAAAAAAAAAAAAABAAAAAAACAAABAAACAAAAAAAAAAAAAAAAAAAAAAAAAAAAAAAAAAAAAA==

> <PUBCHEM_IUPAC_OPENEYE_NAME>
2-[[1-methyl-2-[2-(oxiran-2-ylmethoxy)propoxy]ethoxy]methyl]oxirane

> <PUBCHEM_IUPAC_CAS_NAME>
2-[1-[2-(2-oxiranylmethoxy)propoxy]propan-2-yloxymethyl]oxirane

> <PUBCHEM_IUPAC_NAME_MARKUP>
2-[1-[2-(oxiran-2-ylmethoxy)propoxy]propan-2-yloxymethyl]oxirane

> <PUBCHEM_IUPAC_NAME>
2-[1-[2-(oxiran-2-ylmethoxy)propoxy]propan-2-yloxymethyl]oxirane

> <PUBCHEM_IUPAC_SYSTEMATIC_NAME>
2-[1-[2-(oxiran-2-ylmethoxy)propoxy]propan-2-yloxymethyl]oxirane

> <PUBCHEM_IUPAC_TRADITIONAL_NAME>
2-[[2-(2-glycidoxypropoxy)-1-methyl-ethoxy]methyl]oxirane

> <PUBCHEM_IUPAC_INCHI>
InChI=1S/C12H22O5/c1-9(14-5-11-7-16-11)3-13-4-10(2)15-6-12-8-17-12/h9-12H,3-8H2,1-2H3

> <PUBCHEM_IUPAC_INCHIKEY>
UCLPDTOWSOHLJX-UHFFFAOYSA-N

> <PUBCHEM_XLOGP3_AA>
0

> <PUBCHEM_EXACT_MASS>
246.14672380

> <PUBCHEM_MOLECULAR_FORMULA>
C12H22O5

> <PUBCHEM_MOLECULAR_WEIGHT>
246.30

> <PUBCHEM_SMILES>
CC(COCC(C)OCC1CO1)OCC2CO2

> <PUBCHEM_CONNECTIVITY_SMILES>
CC(COCC(C)OCC1CO1)OCC2CO2

> <PUBCHEM_CACTVS_TPSA>
52.8

> <PUBCHEM_MONOISOTOPIC_WEIGHT>
246.14672380

> <PUBCHEM_TOTAL_CHARGE>
0

> <PUBCHEM_HEAVY_ATOM_COUNT>
17

> <PUBCHEM_ATOM_DEF_STEREO_COUNT>
0

> <PUBCHEM_ATOM_UDEF_STEREO_COUNT>
4

> <PUBCHEM_BOND_DEF_STEREO_COUNT>
0

> <PUBCHEM_BOND_UDEF_STEREO_COUNT>
0

> <PUBCHEM_ISOTOPIC_ATOM_COUNT>
0

> <PUBCHEM_COMPONENT_COUNT>
1

> <PUBCHEM_CACTVS_TAUTO_COUNT>
-1

> <PUBCHEM_COORDINATE_TYPE>
1
5
255

> <PUBCHEM_BONDANNOTATIONS>
12  16  3
13  17  3
6  10  3
7  11  3

$$$$
