3034370
  -OEChem-05122608102D

119121  0     0  0  0  0  0  0999 V2000
   11.5263   -3.0131    0.0000 P   0  0  0  0  0  0  0  0  0  0  0  0
   12.3923   -2.5131    0.0000 O   0  0  0  0  0  0  0  0  0  0  0  0
   11.0263   -2.1471    0.0000 O   0  0  0  0  0  0  0  0  0  0  0  0
   10.6603   -3.5131    0.0000 O   0  0  0  0  0  0  0  0  0  0  0  0
   12.0263   -3.8792    0.0000 O   0  0  0  0  0  0  0  0  0  0  0  0
   16.7224   -1.0131    0.0000 C   0  0  0  0  0  0  0  0  0  0  0  0
    9.5263    2.1830    0.0000 C   0  0  0  0  0  0  0  0  0  0  0  0
    6.3301   -5.0131    0.0000 C   0  0  0  0  0  0  0  0  0  0  0  0
   15.8564   -1.5131    0.0000 C   0  0  0  0  0  0  0  0  0  0  0  0
   10.0263    1.3170    0.0000 C   0  0  0  0  0  0  0  0  0  0  0  0
    7.1962   -4.5131    0.0000 C   0  0  0  0  0  0  0  0  0  0  0  0
   17.5885   -1.5131    0.0000 C   0  0  0  0  0  0  0  0  0  0  0  0
   10.0263    3.0490    0.0000 C   0  0  0  0  0  0  0  0  0  0  0  0
    5.4641   -4.5131    0.0000 C   0  0  0  0  0  0  0  0  0  0  0  0
   14.9904   -1.0131    0.0000 C   0  0  0  0  0  0  0  0  0  0  0  0
    9.5263    0.4510    0.0000 C   0  0  0  0  0  0  0  0  0  0  0  0
    8.0622   -5.0131    0.0000 C   0  0  0  0  0  0  0  0  0  0  0  0
   18.4545   -1.0131    0.0000 C   0  0  0  0  0  0  0  0  0  0  0  0
    9.5263    3.9151    0.0000 C   0  0  0  0  0  0  0  0  0  0  0  0
    4.5981   -5.0131    0.0000 C   0  0  0  0  0  0  0  0  0  0  0  0
   14.1244   -1.5131    0.0000 C   0  0  0  0  0  0  0  0  0  0  0  0
   10.0263   -0.4151    0.0000 C   0  0  0  0  0  0  0  0  0  0  0  0
    8.9282   -4.5131    0.0000 C   0  0  0  0  0  0  0  0  0  0  0  0
   19.3205   -1.5131    0.0000 C   0  0  0  0  0  0  0  0  0  0  0  0
   10.0263    4.7811    0.0000 C   0  0  0  0  0  0  0  0  0  0  0  0
    3.7321   -4.5131    0.0000 C   0  0  0  0  0  0  0  0  0  0  0  0
   13.2583   -1.0131    0.0000 C   0  0  0  0  0  0  0  0  0  0  0  0
    9.5263   -1.2811    0.0000 C   0  0  0  0  0  0  0  0  0  0  0  0
    9.7942   -5.0131    0.0000 C   0  0  0  0  0  0  0  0  0  0  0  0
   20.1865   -1.0131    0.0000 C   0  0  0  0  0  0  0  0  0  0  0  0
    9.5263    5.6471    0.0000 C   0  0  0  0  0  0  0  0  0  0  0  0
    2.8660   -5.0131    0.0000 C   0  0  0  0  0  0  0  0  0  0  0  0
   12.3923   -1.5131    0.0000 C   0  0  0  0  0  0  0  0  0  0  0  0
   10.0263   -2.1471    0.0000 C   0  0  0  0  0  0  0  0  0  0  0  0
   10.6603   -4.5131    0.0000 C   0  0  0  0  0  0  0  0  0  0  0  0
   13.2583   -0.0131    0.0000 C   0  0  0  0  0  0  0  0  0  0  0  0
    8.5263   -1.2811    0.0000 C   0  0  0  0  0  0  0  0  0  0  0  0
    9.7942   -6.0131    0.0000 C   0  0  0  0  0  0  0  0  0  0  0  0
   21.0526   -1.5131    0.0000 C   0  0  0  0  0  0  0  0  0  0  0  0
   10.0263    6.5131    0.0000 C   0  0  0  0  0  0  0  0  0  0  0  0
    2.0000   -4.5131    0.0000 C   0  0  0  0  0  0  0  0  0  0  0  0
   11.5263   -1.0131    0.0000 C   0  0  0  0  0  0  0  0  0  0  0  0
    9.5263   -3.0131    0.0000 C   0  0  0  0  0  0  0  0  0  0  0  0
   11.5263   -5.0131    0.0000 C   0  0  0  0  0  0  0  0  0  0  0  0
   12.3923    0.4869    0.0000 C   0  0  0  0  0  0  0  0  0  0  0  0
    8.0263   -2.1471    0.0000 C   0  0  0  0  0  0  0  0  0  0  0  0
   10.6603   -6.5131    0.0000 C   0  0  0  0  0  0  0  0  0  0  0  0
   11.5263   -0.0131    0.0000 C   0  0  0  0  0  0  0  0  0  0  0  0
    8.5263   -3.0131    0.0000 C   0  0  0  0  0  0  0  0  0  0  0  0
   11.5263   -6.0131    0.0000 C   0  0  0  0  0  0  0  0  0  0  0  0
   17.1210   -0.5382    0.0000 H   0  0  0  0  0  0  0  0  0  0  0  0
   16.3239   -0.5382    0.0000 H   0  0  0  0  0  0  0  0  0  0  0  0
    9.0513    2.5815    0.0000 H   0  0  0  0  0  0  0  0  0  0  0  0
    9.0513    1.7845    0.0000 H   0  0  0  0  0  0  0  0  0  0  0  0
    5.9316   -5.4881    0.0000 H   0  0  0  0  0  0  0  0  0  0  0  0
    6.7287   -5.4881    0.0000 H   0  0  0  0  0  0  0  0  0  0  0  0
   15.4579   -1.9881    0.0000 H   0  0  0  0  0  0  0  0  0  0  0  0
   16.2549   -1.9881    0.0000 H   0  0  0  0  0  0  0  0  0  0  0  0
   10.5012    0.9185    0.0000 H   0  0  0  0  0  0  0  0  0  0  0  0
   10.5012    1.7155    0.0000 H   0  0  0  0  0  0  0  0  0  0  0  0
    7.5947   -4.0382    0.0000 H   0  0  0  0  0  0  0  0  0  0  0  0
    6.7976   -4.0382    0.0000 H   0  0  0  0  0  0  0  0  0  0  0  0
   17.1899   -1.9881    0.0000 H   0  0  0  0  0  0  0  0  0  0  0  0
   17.9870   -1.9881    0.0000 H   0  0  0  0  0  0  0  0  0  0  0  0
   10.5012    2.6505    0.0000 H   0  0  0  0  0  0  0  0  0  0  0  0
   10.5012    3.4476    0.0000 H   0  0  0  0  0  0  0  0  0  0  0  0
    5.8626   -4.0382    0.0000 H   0  0  0  0  0  0  0  0  0  0  0  0
    5.0656   -4.0382    0.0000 H   0  0  0  0  0  0  0  0  0  0  0  0
   15.3889   -0.5382    0.0000 H   0  0  0  0  0  0  0  0  0  0  0  0
   14.5919   -0.5382    0.0000 H   0  0  0  0  0  0  0  0  0  0  0  0
    9.0513    0.8495    0.0000 H   0  0  0  0  0  0  0  0  0  0  0  0
    9.0513    0.0524    0.0000 H   0  0  0  0  0  0  0  0  0  0  0  0
    7.6637   -5.4881    0.0000 H   0  0  0  0  0  0  0  0  0  0  0  0
    8.4607   -5.4881    0.0000 H   0  0  0  0  0  0  0  0  0  0  0  0
   18.8530   -0.5382    0.0000 H   0  0  0  0  0  0  0  0  0  0  0  0
   18.0560   -0.5382    0.0000 H   0  0  0  0  0  0  0  0  0  0  0  0
    9.0513    4.3136    0.0000 H   0  0  0  0  0  0  0  0  0  0  0  0
    9.0513    3.5165    0.0000 H   0  0  0  0  0  0  0  0  0  0  0  0
    4.1996   -5.4881    0.0000 H   0  0  0  0  0  0  0  0  0  0  0  0
    4.9966   -5.4881    0.0000 H   0  0  0  0  0  0  0  0  0  0  0  0
   13.7258   -1.9881    0.0000 H   0  0  0  0  0  0  0  0  0  0  0  0
   14.5229   -1.9881    0.0000 H   0  0  0  0  0  0  0  0  0  0  0  0
   10.5012   -0.8136    0.0000 H   0  0  0  0  0  0  0  0  0  0  0  0
   10.5012   -0.0165    0.0000 H   0  0  0  0  0  0  0  0  0  0  0  0
    9.3267   -4.0382    0.0000 H   0  0  0  0  0  0  0  0  0  0  0  0
    8.5297   -4.0382    0.0000 H   0  0  0  0  0  0  0  0  0  0  0  0
   18.9220   -1.9881    0.0000 H   0  0  0  0  0  0  0  0  0  0  0  0
   19.7190   -1.9881    0.0000 H   0  0  0  0  0  0  0  0  0  0  0  0
   10.5012    4.3826    0.0000 H   0  0  0  0  0  0  0  0  0  0  0  0
   10.5012    5.1796    0.0000 H   0  0  0  0  0  0  0  0  0  0  0  0
    4.1306   -4.0382    0.0000 H   0  0  0  0  0  0  0  0  0  0  0  0
    3.3335   -4.0382    0.0000 H   0  0  0  0  0  0  0  0  0  0  0  0
   20.5851   -0.5382    0.0000 H   0  0  0  0  0  0  0  0  0  0  0  0
   19.7880   -0.5382    0.0000 H   0  0  0  0  0  0  0  0  0  0  0  0
    9.0513    6.0456    0.0000 H   0  0  0  0  0  0  0  0  0  0  0  0
    9.0513    5.2486    0.0000 H   0  0  0  0  0  0  0  0  0  0  0  0
    2.4675   -5.4881    0.0000 H   0  0  0  0  0  0  0  0  0  0  0  0
    3.2646   -5.4881    0.0000 H   0  0  0  0  0  0  0  0  0  0  0  0
   13.7953    0.2969    0.0000 H   0  0  0  0  0  0  0  0  0  0  0  0
    8.2163   -0.7442    0.0000 H   0  0  0  0  0  0  0  0  0  0  0  0
    9.2573   -6.3231    0.0000 H   0  0  0  0  0  0  0  0  0  0  0  0
   20.7426   -2.0501    0.0000 H   0  0  0  0  0  0  0  0  0  0  0  0
   21.5895   -1.8231    0.0000 H   0  0  0  0  0  0  0  0  0  0  0  0
   21.3626   -0.9762    0.0000 H   0  0  0  0  0  0  0  0  0  0  0  0
   10.5632    6.2031    0.0000 H   0  0  0  0  0  0  0  0  0  0  0  0
   10.3363    7.0501    0.0000 H   0  0  0  0  0  0  0  0  0  0  0  0
    9.4893    6.8231    0.0000 H   0  0  0  0  0  0  0  0  0  0  0  0
    2.3100   -3.9762    0.0000 H   0  0  0  0  0  0  0  0  0  0  0  0
    1.4631   -4.2031    0.0000 H   0  0  0  0  0  0  0  0  0  0  0  0
    1.6900   -5.0501    0.0000 H   0  0  0  0  0  0  0  0  0  0  0  0
   10.9893   -1.3231    0.0000 H   0  0  0  0  0  0  0  0  0  0  0  0
    9.8363   -3.5501    0.0000 H   0  0  0  0  0  0  0  0  0  0  0  0
   12.0632   -4.7031    0.0000 H   0  0  0  0  0  0  0  0  0  0  0  0
   12.3923    1.1069    0.0000 H   0  0  0  0  0  0  0  0  0  0  0  0
    7.4063   -2.1471    0.0000 H   0  0  0  0  0  0  0  0  0  0  0  0
   10.6603   -7.1331    0.0000 H   0  0  0  0  0  0  0  0  0  0  0  0
   10.9893    0.2969    0.0000 H   0  0  0  0  0  0  0  0  0  0  0  0
    8.2163   -3.5501    0.0000 H   0  0  0  0  0  0  0  0  0  0  0  0
   12.0632   -6.3231    0.0000 H   0  0  0  0  0  0  0  0  0  0  0  0
  1  2  1  0  0  0  0
  1  3  1  0  0  0  0
  1  4  1  0  0  0  0
  1  5  2  0  0  0  0
  2 33  1  0  0  0  0
  3 34  1  0  0  0  0
  4 35  1  0  0  0  0
  6  9  1  0  0  0  0
  6 12  1  0  0  0  0
  6 51  1  0  0  0  0
  6 52  1  0  0  0  0
  7 10  1  0  0  0  0
  7 13  1  0  0  0  0
  7 53  1  0  0  0  0
  7 54  1  0  0  0  0
  8 11  1  0  0  0  0
  8 14  1  0  0  0  0
  8 55  1  0  0  0  0
  8 56  1  0  0  0  0
  9 15  1  0  0  0  0
  9 57  1  0  0  0  0
  9 58  1  0  0  0  0
 10 16  1  0  0  0  0
 10 59  1  0  0  0  0
 10 60  1  0  0  0  0
 11 17  1  0  0  0  0
 11 61  1  0  0  0  0
 11 62  1  0  0  0  0
 12 18  1  0  0  0  0
 12 63  1  0  0  0  0
 12 64  1  0  0  0  0
 13 19  1  0  0  0  0
 13 65  1  0  0  0  0
 13 66  1  0  0  0  0
 14 20  1  0  0  0  0
 14 67  1  0  0  0  0
 14 68  1  0  0  0  0
 15 21  1  0  0  0  0
 15 69  1  0  0  0  0
 15 70  1  0  0  0  0
 16 22  1  0  0  0  0
 16 71  1  0  0  0  0
 16 72  1  0  0  0  0
 17 23  1  0  0  0  0
 17 73  1  0  0  0  0
 17 74  1  0  0  0  0
 18 24  1  0  0  0  0
 18 75  1  0  0  0  0
 18 76  1  0  0  0  0
 19 25  1  0  0  0  0
 19 77  1  0  0  0  0
 19 78  1  0  0  0  0
 20 26  1  0  0  0  0
 20 79  1  0  0  0  0
 20 80  1  0  0  0  0
 21 27  1  0  0  0  0
 21 81  1  0  0  0  0
 21 82  1  0  0  0  0
 22 28  1  0  0  0  0
 22 83  1  0  0  0  0
 22 84  1  0  0  0  0
 23 29  1  0  0  0  0
 23 85  1  0  0  0  0
 23 86  1  0  0  0  0
 24 30  1  0  0  0  0
 24 87  1  0  0  0  0
 24 88  1  0  0  0  0
 25 31  1  0  0  0  0
 25 89  1  0  0  0  0
 25 90  1  0  0  0  0
 26 32  1  0  0  0  0
 26 91  1  0  0  0  0
 26 92  1  0  0  0  0
 27 33  1  0  0  0  0
 27 36  2  0  0  0  0
 28 34  1  0  0  0  0
 28 37  2  0  0  0  0
 29 35  1  0  0  0  0
 29 38  2  0  0  0  0
 30 39  1  0  0  0  0
 30 93  1  0  0  0  0
 30 94  1  0  0  0  0
 31 40  1  0  0  0  0
 31 95  1  0  0  0  0
 31 96  1  0  0  0  0
 32 41  1  0  0  0  0
 32 97  1  0  0  0  0
 32 98  1  0  0  0  0
 33 42  2  0  0  0  0
 34 43  2  0  0  0  0
 35 44  2  0  0  0  0
 36 45  1  0  0  0  0
 36 99  1  0  0  0  0
 37 46  1  0  0  0  0
 37100  1  0  0  0  0
 38 47  1  0  0  0  0
 38101  1  0  0  0  0
 39102  1  0  0  0  0
 39103  1  0  0  0  0
 39104  1  0  0  0  0
 40105  1  0  0  0  0
 40106  1  0  0  0  0
 40107  1  0  0  0  0
 41108  1  0  0  0  0
 41109  1  0  0  0  0
 41110  1  0  0  0  0
 42 48  1  0  0  0  0
 42111  1  0  0  0  0
 43 49  1  0  0  0  0
 43112  1  0  0  0  0
 44 50  1  0  0  0  0
 44113  1  0  0  0  0
 45 48  2  0  0  0  0
 45114  1  0  0  0  0
 46 49  2  0  0  0  0
 46115  1  0  0  0  0
 47 50  2  0  0  0  0
 47116  1  0  0  0  0
 48117  1  0  0  0  0
 49118  1  0  0  0  0
 50119  1  0  0  0  0
M  END
> <PUBCHEM_COMPOUND_CID>
3034370

> <PUBCHEM_COMPOUND_CANONICALIZED>
1

> <PUBCHEM_CACTVS_COMPLEXITY>
729

> <PUBCHEM_CACTVS_HBOND_ACCEPTOR>
4

> <PUBCHEM_CACTVS_HBOND_DONOR>
0

> <PUBCHEM_CACTVS_ROTATABLE_BOND>
30

> <PUBCHEM_CACTVS_SUBSKEYS>
AAADcfB8OAIAAAAAAAAAAAAAAAAAAAAAAAAwYMAAAAAAAAABUAAAGgAAACAADASAmAAyBoAAARCAQiBCAIACAAAgIAAIiAAGCIgIJiKAERKAMAAkwBEIiAeAwOAOAAAAAAAIAAAAAAAAABAAAAAAAAAAAA==

> <PUBCHEM_IUPAC_OPENEYE_NAME>
tris(2-nonylphenyl) phosphate

> <PUBCHEM_IUPAC_CAS_NAME>
phosphoric acid tris(2-nonylphenyl) ester

> <PUBCHEM_IUPAC_NAME_MARKUP>
tris(2-nonylphenyl) phosphate

> <PUBCHEM_IUPAC_NAME>
tris(2-nonylphenyl) phosphate

> <PUBCHEM_IUPAC_SYSTEMATIC_NAME>
tris(2-nonylphenyl) phosphate

> <PUBCHEM_IUPAC_TRADITIONAL_NAME>
phosphoric acid tris(2-nonylphenyl) ester

> <PUBCHEM_IUPAC_INCHI>
InChI=1S/C45H69O4P/c1-4-7-10-13-16-19-22-31-40-34-25-28-37-43(40)47-50(46,48-44-38-29-26-35-41(44)32-23-20-17-14-11-8-5-2)49-45-39-30-27-36-42(45)33-24-21-18-15-12-9-6-3/h25-30,34-39H,4-24,31-33H2,1-3H3

> <PUBCHEM_IUPAC_INCHIKEY>
OOZBTDPWFHJVEK-UHFFFAOYSA-N

> <PUBCHEM_XLOGP3_AA>
18.7

> <PUBCHEM_EXACT_MASS>
704.49334768

> <PUBCHEM_MOLECULAR_FORMULA>
C45H69O4P

> <PUBCHEM_MOLECULAR_WEIGHT>
705.0

> <PUBCHEM_SMILES>
CCCCCCCCCC1=CC=CC=C1OP(=O)(OC2=CC=CC=C2CCCCCCCCC)OC3=CC=CC=C3CCCCCCCCC

> <PUBCHEM_CONNECTIVITY_SMILES>
CCCCCCCCCC1=CC=CC=C1OP(=O)(OC2=CC=CC=C2CCCCCCCCC)OC3=CC=CC=C3CCCCCCCCC

> <PUBCHEM_CACTVS_TPSA>
44.8

> <PUBCHEM_MONOISOTOPIC_WEIGHT>
704.49334768

> <PUBCHEM_TOTAL_CHARGE>
0

> <PUBCHEM_HEAVY_ATOM_COUNT>
50

> <PUBCHEM_ATOM_DEF_STEREO_COUNT>
0

> <PUBCHEM_ATOM_UDEF_STEREO_COUNT>
0

> <PUBCHEM_BOND_DEF_STEREO_COUNT>
0

> <PUBCHEM_BOND_UDEF_STEREO_COUNT>
0

> <PUBCHEM_ISOTOPIC_ATOM_COUNT>
0

> <PUBCHEM_COMPONENT_COUNT>
1

> <PUBCHEM_CACTVS_TAUTO_COUNT>
-1

> <PUBCHEM_COORDINATE_TYPE>
1
5
255

> <PUBCHEM_BONDANNOTATIONS>
27  33  8
27  36  8
28  34  8
28  37  8
29  35  8
29  38  8
33  42  8
34  43  8
35  44  8
36  45  8
37  46  8
38  47  8
42  48  8
43  49  8
44  50  8
45  48  8
46  49  8
47  50  8

$$$$
