30364
  -OEChem-05122609142D

 24 26  0     0  0  0  0  0  0999 V2000
    4.5274    0.8623    0.0000 S   0  0  0  0  0  0  0  0  0  0  0  0
    5.0274   -0.6766    0.0000 C   0  0  0  0  0  0  0  0  0  0  0  0
    4.0274   -0.6766    0.0000 C   0  0  0  0  0  0  0  0  0  0  0  0
    5.3364    0.2745    0.0000 C   0  0  0  0  0  0  0  0  0  0  0  0
    3.7183    0.2745    0.0000 C   0  0  0  0  0  0  0  0  0  0  0  0
    6.3518    0.5067    0.0000 C   0  0  0  0  0  0  0  0  0  0  0  0
    5.7123   -1.4613    0.0000 C   0  0  0  0  0  0  0  0  0  0  0  0
    3.3424   -1.4613    0.0000 C   0  0  0  0  0  0  0  0  0  0  0  0
    7.0547   -0.2619    0.0000 C   0  0  0  0  0  0  0  0  0  0  0  0
    2.7029    0.5067    0.0000 C   0  0  0  0  0  0  0  0  0  0  0  0
    6.7328   -1.2526    0.0000 C   0  0  0  0  0  0  0  0  0  0  0  0
    6.6498    1.4613    0.0000 C   0  0  0  0  0  0  0  0  0  0  0  0
    2.3219   -1.2526    0.0000 C   0  0  0  0  0  0  0  0  0  0  0  0
    2.0000   -0.2619    0.0000 C   0  0  0  0  0  0  0  0  0  0  0  0
    5.5139   -2.0487    0.0000 H   0  0  0  0  0  0  0  0  0  0  0  0
    3.5408   -2.0487    0.0000 H   0  0  0  0  0  0  0  0  0  0  0  0
    7.6607   -0.1307    0.0000 H   0  0  0  0  0  0  0  0  0  0  0  0
    2.5182    1.0986    0.0000 H   0  0  0  0  0  0  0  0  0  0  0  0
    7.1459   -1.7149    0.0000 H   0  0  0  0  0  0  0  0  0  0  0  0
    7.2416    1.2766    0.0000 H   0  0  0  0  0  0  0  0  0  0  0  0
    6.8345    2.0531    0.0000 H   0  0  0  0  0  0  0  0  0  0  0  0
    6.0580    1.6461    0.0000 H   0  0  0  0  0  0  0  0  0  0  0  0
    1.9088   -1.7149    0.0000 H   0  0  0  0  0  0  0  0  0  0  0  0
    1.3940   -0.1307    0.0000 H   0  0  0  0  0  0  0  0  0  0  0  0
  1  4  1  0  0  0  0
  1  5  1  0  0  0  0
  2  3  1  0  0  0  0
  2  4  1  0  0  0  0
  2  7  2  0  0  0  0
  3  5  1  0  0  0  0
  3  8  2  0  0  0  0
  4  6  2  0  0  0  0
  5 10  2  0  0  0  0
  6  9  1  0  0  0  0
  6 12  1  0  0  0  0
  7 11  1  0  0  0  0
  7 15  1  0  0  0  0
  8 13  1  0  0  0  0
  8 16  1  0  0  0  0
  9 11  2  0  0  0  0
  9 17  1  0  0  0  0
 10 14  1  0  0  0  0
 10 18  1  0  0  0  0
 11 19  1  0  0  0  0
 12 20  1  0  0  0  0
 12 21  1  0  0  0  0
 12 22  1  0  0  0  0
 13 14  2  0  0  0  0
 13 23  1  0  0  0  0
 14 24  1  0  0  0  0
M  END
> <PUBCHEM_COMPOUND_CID>
30364

> <PUBCHEM_COMPOUND_CANONICALIZED>
1

> <PUBCHEM_CACTVS_COMPLEXITY>
213

> <PUBCHEM_CACTVS_HBOND_ACCEPTOR>
1

> <PUBCHEM_CACTVS_HBOND_DONOR>
0

> <PUBCHEM_CACTVS_ROTATABLE_BOND>
0

> <PUBCHEM_CACTVS_SUBSKEYS>
AAADccBwAABAAAAAAAAAAAAAAAAAASAAAAAwYAAAAAAAAEgB/AAAGAQAAAAADACAWAAyAcAAAAiEAiBCAAADAIAgCBBIiBgAAIgIICKgERCAIAAggAAoiAcAgMAOgAACAAAEAAAAAAQAAAgAAAAAAAAAAA==

> <PUBCHEM_IUPAC_OPENEYE_NAME>
4-methyldibenzothiophene

> <PUBCHEM_IUPAC_CAS_NAME>
4-methyldibenzothiophene

> <PUBCHEM_IUPAC_NAME_MARKUP>
4-methyldibenzothiophene

> <PUBCHEM_IUPAC_NAME>
4-methyldibenzothiophene

> <PUBCHEM_IUPAC_SYSTEMATIC_NAME>
4-methyldibenzothiophene

> <PUBCHEM_IUPAC_TRADITIONAL_NAME>
4-methyldibenzothiophene

> <PUBCHEM_IUPAC_INCHI>
InChI=1S/C13H10S/c1-9-5-4-7-11-10-6-2-3-8-12(10)14-13(9)11/h2-8H,1H3

> <PUBCHEM_IUPAC_INCHIKEY>
NICUQYHIOMMFGV-UHFFFAOYSA-N

> <PUBCHEM_XLOGP3>
4.7

> <PUBCHEM_EXACT_MASS>
198.05032149

> <PUBCHEM_MOLECULAR_FORMULA>
C13H10S

> <PUBCHEM_MOLECULAR_WEIGHT>
198.29

> <PUBCHEM_SMILES>
CC1=C2C(=CC=C1)C3=CC=CC=C3S2

> <PUBCHEM_CONNECTIVITY_SMILES>
CC1=C2C(=CC=C1)C3=CC=CC=C3S2

> <PUBCHEM_CACTVS_TPSA>
28.2

> <PUBCHEM_MONOISOTOPIC_WEIGHT>
198.05032149

> <PUBCHEM_TOTAL_CHARGE>
0

> <PUBCHEM_HEAVY_ATOM_COUNT>
14

> <PUBCHEM_ATOM_DEF_STEREO_COUNT>
0

> <PUBCHEM_ATOM_UDEF_STEREO_COUNT>
0

> <PUBCHEM_BOND_DEF_STEREO_COUNT>
0

> <PUBCHEM_BOND_UDEF_STEREO_COUNT>
0

> <PUBCHEM_ISOTOPIC_ATOM_COUNT>
0

> <PUBCHEM_COMPONENT_COUNT>
1

> <PUBCHEM_CACTVS_TAUTO_COUNT>
-1

> <PUBCHEM_COORDINATE_TYPE>
1
5
255

> <PUBCHEM_BONDANNOTATIONS>
1  4  8
1  5  8
10  14  8
13  14  8
2  3  8
2  4  8
2  7  8
3  5  8
3  8  8
4  6  8
5  10  8
6  9  8
7  11  8
8  13  8
9  11  8

$$$$
