3084890
  -OEChem-05122609472D

 57 56  0     0  0  0  0  0  0999 V2000
    8.0622   -0.6900    0.0000 O   0  0  0  0  0  0  0  0  0  0  0  0
    8.9282    0.8100    0.0000 C   0  0  0  0  0  0  0  0  0  0  0  0
    9.7942    1.3100    0.0000 C   0  0  0  0  0  0  0  0  0  0  0  0
    8.0622    1.3100    0.0000 C   0  0  0  0  0  0  0  0  0  0  0  0
   10.6603    0.8100    0.0000 C   0  0  0  0  0  0  0  0  0  0  0  0
    7.1962    0.8100    0.0000 C   0  0  0  0  0  0  0  0  0  0  0  0
   11.5263    1.3100    0.0000 C   0  0  0  0  0  0  0  0  0  0  0  0
    6.3301    1.3100    0.0000 C   0  0  0  0  0  0  0  0  0  0  0  0
    8.9282   -0.1900    0.0000 C   0  0  0  0  0  0  0  0  0  0  0  0
   12.3923    0.8100    0.0000 C   0  0  0  0  0  0  0  0  0  0  0  0
    5.4641    0.8100    0.0000 C   0  0  0  0  0  0  0  0  0  0  0  0
   13.2583    1.3100    0.0000 C   0  0  0  0  0  0  0  0  0  0  0  0
    4.5981    1.3100    0.0000 C   0  0  0  0  0  0  0  0  0  0  0  0
   14.1244    0.8100    0.0000 C   0  0  0  0  0  0  0  0  0  0  0  0
    3.7321    0.8100    0.0000 C   0  0  0  0  0  0  0  0  0  0  0  0
   14.9904    1.3100    0.0000 C   0  0  0  0  0  0  0  0  0  0  0  0
    2.8660    1.3100    0.0000 C   0  0  0  0  0  0  0  0  0  0  0  0
   15.8564    0.8100    0.0000 C   0  0  0  0  0  0  0  0  0  0  0  0
    2.0000    0.8100    0.0000 C   0  0  0  0  0  0  0  0  0  0  0  0
    9.4651    0.5000    0.0000 H   0  0  0  0  0  0  0  0  0  0  0  0
   10.1928    1.7850    0.0000 H   0  0  0  0  0  0  0  0  0  0  0  0
    9.3957    1.7850    0.0000 H   0  0  0  0  0  0  0  0  0  0  0  0
    8.4607    1.7850    0.0000 H   0  0  0  0  0  0  0  0  0  0  0  0
    7.6637    1.7850    0.0000 H   0  0  0  0  0  0  0  0  0  0  0  0
   10.2617    0.3351    0.0000 H   0  0  0  0  0  0  0  0  0  0  0  0
   11.0588    0.3351    0.0000 H   0  0  0  0  0  0  0  0  0  0  0  0
    6.7976    0.3351    0.0000 H   0  0  0  0  0  0  0  0  0  0  0  0
    7.5947    0.3351    0.0000 H   0  0  0  0  0  0  0  0  0  0  0  0
   11.9248    1.7850    0.0000 H   0  0  0  0  0  0  0  0  0  0  0  0
   11.1278    1.7850    0.0000 H   0  0  0  0  0  0  0  0  0  0  0  0
    6.7287    1.7850    0.0000 H   0  0  0  0  0  0  0  0  0  0  0  0
    5.9316    1.7850    0.0000 H   0  0  0  0  0  0  0  0  0  0  0  0
    9.1403   -0.7726    0.0000 H   0  0  0  0  0  0  0  0  0  0  0  0
    9.5388   -0.0823    0.0000 H   0  0  0  0  0  0  0  0  0  0  0  0
   11.9938    0.3351    0.0000 H   0  0  0  0  0  0  0  0  0  0  0  0
   12.7908    0.3351    0.0000 H   0  0  0  0  0  0  0  0  0  0  0  0
    5.0656    0.3351    0.0000 H   0  0  0  0  0  0  0  0  0  0  0  0
    5.8626    0.3351    0.0000 H   0  0  0  0  0  0  0  0  0  0  0  0
   13.6569    1.7850    0.0000 H   0  0  0  0  0  0  0  0  0  0  0  0
   12.8598    1.7850    0.0000 H   0  0  0  0  0  0  0  0  0  0  0  0
    4.9966    1.7850    0.0000 H   0  0  0  0  0  0  0  0  0  0  0  0
    4.1996    1.7850    0.0000 H   0  0  0  0  0  0  0  0  0  0  0  0
   13.7258    0.3351    0.0000 H   0  0  0  0  0  0  0  0  0  0  0  0
   14.5229    0.3351    0.0000 H   0  0  0  0  0  0  0  0  0  0  0  0
    3.3335    0.3351    0.0000 H   0  0  0  0  0  0  0  0  0  0  0  0
    4.1306    0.3351    0.0000 H   0  0  0  0  0  0  0  0  0  0  0  0
   15.3889    1.7850    0.0000 H   0  0  0  0  0  0  0  0  0  0  0  0
   14.5919    1.7850    0.0000 H   0  0  0  0  0  0  0  0  0  0  0  0
    3.2646    1.7850    0.0000 H   0  0  0  0  0  0  0  0  0  0  0  0
    2.4675    1.7850    0.0000 H   0  0  0  0  0  0  0  0  0  0  0  0
    8.0622   -1.3100    0.0000 H   0  0  0  0  0  0  0  0  0  0  0  0
   15.5464    0.2731    0.0000 H   0  0  0  0  0  0  0  0  0  0  0  0
   16.3933    0.5000    0.0000 H   0  0  0  0  0  0  0  0  0  0  0  0
   16.1664    1.3469    0.0000 H   0  0  0  0  0  0  0  0  0  0  0  0
    1.6900    1.3469    0.0000 H   0  0  0  0  0  0  0  0  0  0  0  0
    1.4631    0.5000    0.0000 H   0  0  0  0  0  0  0  0  0  0  0  0
    2.3100    0.2731    0.0000 H   0  0  0  0  0  0  0  0  0  0  0  0
  1  9  1  0  0  0  0
  1 51  1  0  0  0  0
  2  3  1  0  0  0  0
  2  4  1  0  0  0  0
  2  9  1  0  0  0  0
  2 20  1  0  0  0  0
  3  5  1  0  0  0  0
  3 21  1  0  0  0  0
  3 22  1  0  0  0  0
  4  6  1  0  0  0  0
  4 23  1  0  0  0  0
  4 24  1  0  0  0  0
  5  7  1  0  0  0  0
  5 25  1  0  0  0  0
  5 26  1  0  0  0  0
  6  8  1  0  0  0  0
  6 27  1  0  0  0  0
  6 28  1  0  0  0  0
  7 10  1  0  0  0  0
  7 29  1  0  0  0  0
  7 30  1  0  0  0  0
  8 11  1  0  0  0  0
  8 31  1  0  0  0  0
  8 32  1  0  0  0  0
  9 33  1  0  0  0  0
  9 34  1  0  0  0  0
 10 12  1  0  0  0  0
 10 35  1  0  0  0  0
 10 36  1  0  0  0  0
 11 13  1  0  0  0  0
 11 37  1  0  0  0  0
 11 38  1  0  0  0  0
 12 14  1  0  0  0  0
 12 39  1  0  0  0  0
 12 40  1  0  0  0  0
 13 15  1  0  0  0  0
 13 41  1  0  0  0  0
 13 42  1  0  0  0  0
 14 16  1  0  0  0  0
 14 43  1  0  0  0  0
 14 44  1  0  0  0  0
 15 17  1  0  0  0  0
 15 45  1  0  0  0  0
 15 46  1  0  0  0  0
 16 18  1  0  0  0  0
 16 47  1  0  0  0  0
 16 48  1  0  0  0  0
 17 19  1  0  0  0  0
 17 49  1  0  0  0  0
 17 50  1  0  0  0  0
 18 52  1  0  0  0  0
 18 53  1  0  0  0  0
 18 54  1  0  0  0  0
 19 55  1  0  0  0  0
 19 56  1  0  0  0  0
 19 57  1  0  0  0  0
M  END
> <PUBCHEM_COMPOUND_CID>
3084890

> <PUBCHEM_COMPOUND_CANONICALIZED>
1

> <PUBCHEM_CACTVS_COMPLEXITY>
140

> <PUBCHEM_CACTVS_HBOND_ACCEPTOR>
1

> <PUBCHEM_CACTVS_HBOND_DONOR>
1

> <PUBCHEM_CACTVS_ROTATABLE_BOND>
15

> <PUBCHEM_CACTVS_SUBSKEYS>
AAADcfB4IAAAAAAAAAAAAAAAAAAAAAAAAAAAAAAAAAAAAAAAAAAAGgAACAAADQCggAICAAAAAgAAAAAAAAAAAAAAAAAAAAAAAAAAEAIAAAAAQAAEAAAAAAGAwOAOAAAAAAAAAAAAAAAAAAAAAAAAAAAAAA==

> <PUBCHEM_IUPAC_OPENEYE_NAME>
2-octyldecan-1-ol

> <PUBCHEM_IUPAC_CAS_NAME>
2-octyl-1-decanol

> <PUBCHEM_IUPAC_NAME_MARKUP>
2-octyldecan-1-ol

> <PUBCHEM_IUPAC_NAME>
2-octyldecan-1-ol

> <PUBCHEM_IUPAC_SYSTEMATIC_NAME>
2-octyldecan-1-ol

> <PUBCHEM_IUPAC_TRADITIONAL_NAME>
2-octyldecan-1-ol

> <PUBCHEM_IUPAC_INCHI>
InChI=1S/C18H38O/c1-3-5-7-9-11-13-15-18(17-19)16-14-12-10-8-6-4-2/h18-19H,3-17H2,1-2H3

> <PUBCHEM_IUPAC_INCHIKEY>
JYZLSYFPFQTNNO-UHFFFAOYSA-N

> <PUBCHEM_XLOGP3_AA>
8.1

> <PUBCHEM_EXACT_MASS>
270.292265831

> <PUBCHEM_MOLECULAR_FORMULA>
C18H38O

> <PUBCHEM_MOLECULAR_WEIGHT>
270.5

> <PUBCHEM_SMILES>
CCCCCCCCC(CCCCCCCC)CO

> <PUBCHEM_CONNECTIVITY_SMILES>
CCCCCCCCC(CCCCCCCC)CO

> <PUBCHEM_CACTVS_TPSA>
20.2

> <PUBCHEM_MONOISOTOPIC_WEIGHT>
270.292265831

> <PUBCHEM_TOTAL_CHARGE>
0

> <PUBCHEM_HEAVY_ATOM_COUNT>
19

> <PUBCHEM_ATOM_DEF_STEREO_COUNT>
0

> <PUBCHEM_ATOM_UDEF_STEREO_COUNT>
0

> <PUBCHEM_BOND_DEF_STEREO_COUNT>
0

> <PUBCHEM_BOND_UDEF_STEREO_COUNT>
0

> <PUBCHEM_ISOTOPIC_ATOM_COUNT>
0

> <PUBCHEM_COMPONENT_COUNT>
1

> <PUBCHEM_CACTVS_TAUTO_COUNT>
-1

> <PUBCHEM_COORDINATE_TYPE>
1
5
255

$$$$
