31241
  -OEChem-05122609332D

 25 24  0     1  0  0  0  0  0999 V2000
    2.0000    0.1900    0.0000 O   0  0  0  0  0  0  0  0  0  0  0  0
    3.7321    0.1900    0.0000 C   0  0  3  0  0  0  0  0  0  0  0  0
    4.5981    0.6900    0.0000 C   0  0  0  0  0  0  0  0  0  0  0  0
    5.4641    0.1900    0.0000 C   0  0  0  0  0  0  0  0  0  0  0  0
    3.7321   -0.8100    0.0000 C   0  0  0  0  0  0  0  0  0  0  0  0
    6.3301    0.6900    0.0000 C   0  0  0  0  0  0  0  0  0  0  0  0
    2.8660    0.6900    0.0000 C   0  0  0  0  0  0  0  0  0  0  0  0
    4.5981   -1.3100    0.0000 C   0  0  0  0  0  0  0  0  0  0  0  0
    7.1962    0.1900    0.0000 C   0  0  0  0  0  0  0  0  0  0  0  0
    3.7321    1.0400    0.0000 H   0  0  0  0  0  0  0  0  0  0  0  0
    4.9966    1.1650    0.0000 H   0  0  0  0  0  0  0  0  0  0  0  0
    4.1996    1.1650    0.0000 H   0  0  0  0  0  0  0  0  0  0  0  0
    5.0656   -0.2849    0.0000 H   0  0  0  0  0  0  0  0  0  0  0  0
    5.8626   -0.2849    0.0000 H   0  0  0  0  0  0  0  0  0  0  0  0
    3.1215   -0.7023    0.0000 H   0  0  0  0  0  0  0  0  0  0  0  0
    3.5200   -1.3926    0.0000 H   0  0  0  0  0  0  0  0  0  0  0  0
    6.7287    1.1650    0.0000 H   0  0  0  0  0  0  0  0  0  0  0  0
    5.9316    1.1650    0.0000 H   0  0  0  0  0  0  0  0  0  0  0  0
    2.8660    1.3100    0.0000 H   0  0  0  0  0  0  0  0  0  0  0  0
    4.2881   -1.8469    0.0000 H   0  0  0  0  0  0  0  0  0  0  0  0
    5.1350   -1.6200    0.0000 H   0  0  0  0  0  0  0  0  0  0  0  0
    4.9081   -0.7731    0.0000 H   0  0  0  0  0  0  0  0  0  0  0  0
    6.8862   -0.3469    0.0000 H   0  0  0  0  0  0  0  0  0  0  0  0
    7.7331   -0.1200    0.0000 H   0  0  0  0  0  0  0  0  0  0  0  0
    7.5062    0.7269    0.0000 H   0  0  0  0  0  0  0  0  0  0  0  0
  1  7  2  0  0  0  0
  2  3  1  0  0  0  0
  2  5  1  0  0  0  0
  2  7  1  0  0  0  0
  2 10  1  0  0  0  0
  3  4  1  0  0  0  0
  3 11  1  0  0  0  0
  3 12  1  0  0  0  0
  4  6  1  0  0  0  0
  4 13  1  0  0  0  0
  4 14  1  0  0  0  0
  5  8  1  0  0  0  0
  5 15  1  0  0  0  0
  5 16  1  0  0  0  0
  6  9  1  0  0  0  0
  6 17  1  0  0  0  0
  6 18  1  0  0  0  0
  7 19  1  0  0  0  0
  8 20  1  0  0  0  0
  8 21  1  0  0  0  0
  8 22  1  0  0  0  0
  9 23  1  0  0  0  0
  9 24  1  0  0  0  0
  9 25  1  0  0  0  0
M  END
> <PUBCHEM_COMPOUND_CID>
31241

> <PUBCHEM_COMPOUND_CANONICALIZED>
1

> <PUBCHEM_CACTVS_COMPLEXITY>
69

> <PUBCHEM_CACTVS_HBOND_ACCEPTOR>
1

> <PUBCHEM_CACTVS_HBOND_DONOR>
0

> <PUBCHEM_CACTVS_ROTATABLE_BOND>
5

> <PUBCHEM_CACTVS_SUBSKEYS>
AAADceBwIAAAAAAAAAAAAAAAAAAAAAAAAAAAAAAAAAAAAAAAAAAAGgAAAAAADQCggAICAAAAAAAIAAgQgAAAAAAAAAAAAAEAAAAAABIAAAAAAAAAAAAAAAEIiAAOAAAAAAAAAAAAAAAAAAAAAAAAAAAAAA==

> <PUBCHEM_IUPAC_OPENEYE_NAME>
2-ethylhexanal

> <PUBCHEM_IUPAC_CAS_NAME>
2-ethylhexanal

> <PUBCHEM_IUPAC_NAME_MARKUP>
2-ethylhexanal

> <PUBCHEM_IUPAC_NAME>
2-ethylhexanal

> <PUBCHEM_IUPAC_SYSTEMATIC_NAME>
2-ethylhexanal

> <PUBCHEM_IUPAC_TRADITIONAL_NAME>
2-ethylhexanal

> <PUBCHEM_IUPAC_INCHI>
InChI=1S/C8H16O/c1-3-5-6-8(4-2)7-9/h7-8H,3-6H2,1-2H3

> <PUBCHEM_IUPAC_INCHIKEY>
LGYNIFWIKSEESD-UHFFFAOYSA-N

> <PUBCHEM_XLOGP3_AA>
2.6

> <PUBCHEM_EXACT_MASS>
128.120115130

> <PUBCHEM_MOLECULAR_FORMULA>
C8H16O

> <PUBCHEM_MOLECULAR_WEIGHT>
128.21

> <PUBCHEM_SMILES>
CCCCC(CC)C=O

> <PUBCHEM_CONNECTIVITY_SMILES>
CCCCC(CC)C=O

> <PUBCHEM_CACTVS_TPSA>
17.1

> <PUBCHEM_MONOISOTOPIC_WEIGHT>
128.120115130

> <PUBCHEM_TOTAL_CHARGE>
0

> <PUBCHEM_HEAVY_ATOM_COUNT>
9

> <PUBCHEM_ATOM_DEF_STEREO_COUNT>
0

> <PUBCHEM_ATOM_UDEF_STEREO_COUNT>
1

> <PUBCHEM_BOND_DEF_STEREO_COUNT>
0

> <PUBCHEM_BOND_UDEF_STEREO_COUNT>
0

> <PUBCHEM_ISOTOPIC_ATOM_COUNT>
0

> <PUBCHEM_COMPONENT_COUNT>
1

> <PUBCHEM_CACTVS_TAUTO_COUNT>
-1

> <PUBCHEM_COORDINATE_TYPE>
1
5
255

> <PUBCHEM_BONDANNOTATIONS>
2  10  3

$$$$
