31355
  -OEChem-05122608132D

 44 43  0     0  0  0  0  0  0999 V2000
    5.4641   -0.9821    0.0000 P   0  0  0  0  0  0  0  0  0  0  0  0
    6.3301   -0.4821    0.0000 O   0  0  0  0  0  0  0  0  0  0  0  0
    4.5981   -1.4821    0.0000 O   0  0  0  0  0  0  0  0  0  0  0  0
    4.9641   -0.1160    0.0000 O   0  0  0  0  0  0  0  0  0  0  0  0
    5.9641   -1.8481    0.0000 O   0  0  0  0  0  0  0  0  0  0  0  0
    8.0622   -0.4821    0.0000 C   0  0  0  0  0  0  0  0  0  0  0  0
    2.8660   -1.4821    0.0000 C   0  0  0  0  0  0  0  0  0  0  0  0
    4.9641    1.6160    0.0000 C   0  0  0  0  0  0  0  0  0  0  0  0
    7.1962   -0.9821    0.0000 C   0  0  0  0  0  0  0  0  0  0  0  0
    3.7321   -0.9821    0.0000 C   0  0  0  0  0  0  0  0  0  0  0  0
    5.4641    0.7500    0.0000 C   0  0  0  0  0  0  0  0  0  0  0  0
    8.9282   -0.9821    0.0000 C   0  0  0  0  0  0  0  0  0  0  0  0
    8.0622    0.5179    0.0000 C   0  0  0  0  0  0  0  0  0  0  0  0
    2.0000   -0.9821    0.0000 C   0  0  0  0  0  0  0  0  0  0  0  0
    2.8660   -2.4821    0.0000 C   0  0  0  0  0  0  0  0  0  0  0  0
    5.4641    2.4821    0.0000 C   0  0  0  0  0  0  0  0  0  0  0  0
    3.9641    1.6160    0.0000 C   0  0  0  0  0  0  0  0  0  0  0  0
    8.0622   -1.1021    0.0000 H   0  0  0  0  0  0  0  0  0  0  0  0
    2.8660   -0.8621    0.0000 H   0  0  0  0  0  0  0  0  0  0  0  0
    5.5841    1.6160    0.0000 H   0  0  0  0  0  0  0  0  0  0  0  0
    6.7976   -1.4570    0.0000 H   0  0  0  0  0  0  0  0  0  0  0  0
    7.5947   -1.4570    0.0000 H   0  0  0  0  0  0  0  0  0  0  0  0
    4.1306   -0.5071    0.0000 H   0  0  0  0  0  0  0  0  0  0  0  0
    3.3335   -0.5071    0.0000 H   0  0  0  0  0  0  0  0  0  0  0  0
    5.9391    0.3515    0.0000 H   0  0  0  0  0  0  0  0  0  0  0  0
    5.9391    1.1485    0.0000 H   0  0  0  0  0  0  0  0  0  0  0  0
    8.6182   -1.5190    0.0000 H   0  0  0  0  0  0  0  0  0  0  0  0
    9.4651   -1.2921    0.0000 H   0  0  0  0  0  0  0  0  0  0  0  0
    9.2382   -0.4451    0.0000 H   0  0  0  0  0  0  0  0  0  0  0  0
    8.6822    0.5179    0.0000 H   0  0  0  0  0  0  0  0  0  0  0  0
    8.0622    1.1380    0.0000 H   0  0  0  0  0  0  0  0  0  0  0  0
    7.4422    0.5179    0.0000 H   0  0  0  0  0  0  0  0  0  0  0  0
    2.3100   -0.4451    0.0000 H   0  0  0  0  0  0  0  0  0  0  0  0
    1.4631   -0.6721    0.0000 H   0  0  0  0  0  0  0  0  0  0  0  0
    1.6900   -1.5190    0.0000 H   0  0  0  0  0  0  0  0  0  0  0  0
    2.2460   -2.4821    0.0000 H   0  0  0  0  0  0  0  0  0  0  0  0
    2.8660   -3.1021    0.0000 H   0  0  0  0  0  0  0  0  0  0  0  0
    3.4860   -2.4821    0.0000 H   0  0  0  0  0  0  0  0  0  0  0  0
    6.0010    2.1721    0.0000 H   0  0  0  0  0  0  0  0  0  0  0  0
    5.7741    3.0190    0.0000 H   0  0  0  0  0  0  0  0  0  0  0  0
    4.9272    2.7921    0.0000 H   0  0  0  0  0  0  0  0  0  0  0  0
    3.9641    2.2360    0.0000 H   0  0  0  0  0  0  0  0  0  0  0  0
    3.3441    1.6160    0.0000 H   0  0  0  0  0  0  0  0  0  0  0  0
    3.9641    0.9960    0.0000 H   0  0  0  0  0  0  0  0  0  0  0  0
  1  2  1  0  0  0  0
  1  3  1  0  0  0  0
  1  4  1  0  0  0  0
  1  5  2  0  0  0  0
  2  9  1  0  0  0  0
  3 10  1  0  0  0  0
  4 11  1  0  0  0  0
  6  9  1  0  0  0  0
  6 12  1  0  0  0  0
  6 13  1  0  0  0  0
  6 18  1  0  0  0  0
  7 10  1  0  0  0  0
  7 14  1  0  0  0  0
  7 15  1  0  0  0  0
  7 19  1  0  0  0  0
  8 11  1  0  0  0  0
  8 16  1  0  0  0  0
  8 17  1  0  0  0  0
  8 20  1  0  0  0  0
  9 21  1  0  0  0  0
  9 22  1  0  0  0  0
 10 23  1  0  0  0  0
 10 24  1  0  0  0  0
 11 25  1  0  0  0  0
 11 26  1  0  0  0  0
 12 27  1  0  0  0  0
 12 28  1  0  0  0  0
 12 29  1  0  0  0  0
 13 30  1  0  0  0  0
 13 31  1  0  0  0  0
 13 32  1  0  0  0  0
 14 33  1  0  0  0  0
 14 34  1  0  0  0  0
 14 35  1  0  0  0  0
 15 36  1  0  0  0  0
 15 37  1  0  0  0  0
 15 38  1  0  0  0  0
 16 39  1  0  0  0  0
 16 40  1  0  0  0  0
 16 41  1  0  0  0  0
 17 42  1  0  0  0  0
 17 43  1  0  0  0  0
 17 44  1  0  0  0  0
M  END
> <PUBCHEM_COMPOUND_CID>
31355

> <PUBCHEM_COMPOUND_CANONICALIZED>
1

> <PUBCHEM_CACTVS_COMPLEXITY>
201

> <PUBCHEM_CACTVS_HBOND_ACCEPTOR>
4

> <PUBCHEM_CACTVS_HBOND_DONOR>
0

> <PUBCHEM_CACTVS_ROTATABLE_BOND>
9

> <PUBCHEM_CACTVS_SUBSKEYS>
AAADceBwOAIAAAAAAAAAAAAAAAAAAAAAAAAAAAAAAAAAAAAAAAAAGgAAACAADQCggAICAAAAARAAQAAAAIAAAAAAAAAAAAAAAAAAAAAAAAAAAAAAAAAAAAAAAAAAAAAAAAAAAAAAAAAAAAAAAAAAAAAAAA==

> <PUBCHEM_IUPAC_OPENEYE_NAME>
triisobutyl phosphate

> <PUBCHEM_IUPAC_CAS_NAME>
phosphoric acid tris(2-methylpropyl) ester

> <PUBCHEM_IUPAC_NAME_MARKUP>
tris(2-methylpropyl) phosphate

> <PUBCHEM_IUPAC_NAME>
tris(2-methylpropyl) phosphate

> <PUBCHEM_IUPAC_SYSTEMATIC_NAME>
tris(2-methylpropyl) phosphate

> <PUBCHEM_IUPAC_TRADITIONAL_NAME>
phosphoric acid triisobutyl ester

> <PUBCHEM_IUPAC_INCHI>
InChI=1S/C12H27O4P/c1-10(2)7-14-17(13,15-8-11(3)4)16-9-12(5)6/h10-12H,7-9H2,1-6H3

> <PUBCHEM_IUPAC_INCHIKEY>
HRKAMJBPFPHCSD-UHFFFAOYSA-N

> <PUBCHEM_XLOGP3_AA>
3.5

> <PUBCHEM_EXACT_MASS>
266.16469634

> <PUBCHEM_MOLECULAR_FORMULA>
C12H27O4P

> <PUBCHEM_MOLECULAR_WEIGHT>
266.31

> <PUBCHEM_SMILES>
CC(C)COP(=O)(OCC(C)C)OCC(C)C

> <PUBCHEM_CONNECTIVITY_SMILES>
CC(C)COP(=O)(OCC(C)C)OCC(C)C

> <PUBCHEM_CACTVS_TPSA>
44.8

> <PUBCHEM_MONOISOTOPIC_WEIGHT>
266.16469634

> <PUBCHEM_TOTAL_CHARGE>
0

> <PUBCHEM_HEAVY_ATOM_COUNT>
17

> <PUBCHEM_ATOM_DEF_STEREO_COUNT>
0

> <PUBCHEM_ATOM_UDEF_STEREO_COUNT>
0

> <PUBCHEM_BOND_DEF_STEREO_COUNT>
0

> <PUBCHEM_BOND_UDEF_STEREO_COUNT>
0

> <PUBCHEM_ISOTOPIC_ATOM_COUNT>
0

> <PUBCHEM_COMPONENT_COUNT>
1

> <PUBCHEM_CACTVS_TAUTO_COUNT>
-1

> <PUBCHEM_COORDINATE_TYPE>
1
5
255

$$$$
