319003
  -OEChem-05122609082D

 25 26  0     1  0  0  0  0  0999 V2000
    2.3660    1.8649    0.0000 O   0  0  0  0  0  0  0  0  0  0  0  0
    2.8660    0.3261    0.0000 N   0  0  3  0  0  0  0  0  0  0  0  0
    3.3660    1.8649    0.0000 C   0  0  3  0  0  0  0  0  0  0  0  0
    3.6750    0.9139    0.0000 C   0  0  0  0  0  0  0  0  0  0  0  0
    2.0570    0.9139    0.0000 C   0  0  0  0  0  0  0  0  0  0  0  0
    2.8660   -0.6739    0.0000 C   0  0  0  0  0  0  0  0  0  0  0  0
    3.9538    2.6739    0.0000 C   0  0  0  0  0  0  0  0  0  0  0  0
    2.0000   -1.1739    0.0000 C   0  0  0  0  0  0  0  0  0  0  0  0
    3.7321   -1.1739    0.0000 C   0  0  0  0  0  0  0  0  0  0  0  0
    2.0000   -2.1739    0.0000 C   0  0  0  0  0  0  0  0  0  0  0  0
    3.7321   -2.1739    0.0000 C   0  0  0  0  0  0  0  0  0  0  0  0
    2.8660   -2.6739    0.0000 C   0  0  0  0  0  0  0  0  0  0  0  0
    3.0846    2.4173    0.0000 H   0  0  0  0  0  0  0  0  0  0  0  0
    3.9850    0.3769    0.0000 H   0  0  0  0  0  0  0  0  0  0  0  0
    4.2414    1.1660    0.0000 H   0  0  0  0  0  0  0  0  0  0  0  0
    1.4906    1.1660    0.0000 H   0  0  0  0  0  0  0  0  0  0  0  0
    1.7470    0.3769    0.0000 H   0  0  0  0  0  0  0  0  0  0  0  0
    4.4554    2.3095    0.0000 H   0  0  0  0  0  0  0  0  0  0  0  0
    4.3182    3.1755    0.0000 H   0  0  0  0  0  0  0  0  0  0  0  0
    3.4522    3.0384    0.0000 H   0  0  0  0  0  0  0  0  0  0  0  0
    1.4631   -0.8639    0.0000 H   0  0  0  0  0  0  0  0  0  0  0  0
    4.2690   -0.8639    0.0000 H   0  0  0  0  0  0  0  0  0  0  0  0
    1.4631   -2.4839    0.0000 H   0  0  0  0  0  0  0  0  0  0  0  0
    4.2690   -2.4839    0.0000 H   0  0  0  0  0  0  0  0  0  0  0  0
    2.8660   -3.2939    0.0000 H   0  0  0  0  0  0  0  0  0  0  0  0
  1  3  1  0  0  0  0
  1  5  1  0  0  0  0
  2  4  1  0  0  0  0
  2  5  1  0  0  0  0
  2  6  1  0  0  0  0
  3  4  1  0  0  0  0
  3  7  1  0  0  0  0
  3 13  1  0  0  0  0
  4 14  1  0  0  0  0
  4 15  1  0  0  0  0
  5 16  1  0  0  0  0
  5 17  1  0  0  0  0
  6  8  2  0  0  0  0
  6  9  1  0  0  0  0
  7 18  1  0  0  0  0
  7 19  1  0  0  0  0
  7 20  1  0  0  0  0
  8 10  1  0  0  0  0
  8 21  1  0  0  0  0
  9 11  2  0  0  0  0
  9 22  1  0  0  0  0
 10 12  2  0  0  0  0
 10 23  1  0  0  0  0
 11 12  1  0  0  0  0
 11 24  1  0  0  0  0
 12 25  1  0  0  0  0
M  END
> <PUBCHEM_COMPOUND_CID>
319003

> <PUBCHEM_COMPOUND_CANONICALIZED>
1

> <PUBCHEM_CACTVS_COMPLEXITY>
143

> <PUBCHEM_CACTVS_HBOND_ACCEPTOR>
2

> <PUBCHEM_CACTVS_HBOND_DONOR>
0

> <PUBCHEM_CACTVS_ROTATABLE_BOND>
1

> <PUBCHEM_CACTVS_SUBSKEYS>
AAADccByIAAAAAAAAAAAAAAAAAAAAWAAAAAwAAAAAAAAAAABAAAAHgAAAAAACBzhkAYywIMABACAACRCQACCAAAhAgAIiAAIZIgKICLAkZGNIAhggADYyAcQAAAAAAAAAAAAAAAAAAAAAAAAAAAAAAAAAA==

> <PUBCHEM_IUPAC_OPENEYE_NAME>
5-methyl-3-phenyl-oxazolidine

> <PUBCHEM_IUPAC_CAS_NAME>
5-methyl-3-phenyloxazolidine

> <PUBCHEM_IUPAC_NAME_MARKUP>
5-methyl-3-phenyl-1,3-oxazolidine

> <PUBCHEM_IUPAC_NAME>
5-methyl-3-phenyl-1,3-oxazolidine

> <PUBCHEM_IUPAC_SYSTEMATIC_NAME>
5-methyl-3-phenyl-1,3-oxazolidine

> <PUBCHEM_IUPAC_TRADITIONAL_NAME>
5-methyl-3-phenyl-oxazolidine

> <PUBCHEM_IUPAC_INCHI>
InChI=1S/C10H13NO/c1-9-7-11(8-12-9)10-5-3-2-4-6-10/h2-6,9H,7-8H2,1H3

> <PUBCHEM_IUPAC_INCHIKEY>
VJPMKAHLPYDCHH-UHFFFAOYSA-N

> <PUBCHEM_XLOGP3_AA>
2.2

> <PUBCHEM_EXACT_MASS>
163.099714038

> <PUBCHEM_MOLECULAR_FORMULA>
C10H13NO

> <PUBCHEM_MOLECULAR_WEIGHT>
163.22

> <PUBCHEM_SMILES>
CC1CN(CO1)C2=CC=CC=C2

> <PUBCHEM_CONNECTIVITY_SMILES>
CC1CN(CO1)C2=CC=CC=C2

> <PUBCHEM_CACTVS_TPSA>
12.5

> <PUBCHEM_MONOISOTOPIC_WEIGHT>
163.099714038

> <PUBCHEM_TOTAL_CHARGE>
0

> <PUBCHEM_HEAVY_ATOM_COUNT>
12

> <PUBCHEM_ATOM_DEF_STEREO_COUNT>
0

> <PUBCHEM_ATOM_UDEF_STEREO_COUNT>
1

> <PUBCHEM_BOND_DEF_STEREO_COUNT>
0

> <PUBCHEM_BOND_UDEF_STEREO_COUNT>
0

> <PUBCHEM_ISOTOPIC_ATOM_COUNT>
0

> <PUBCHEM_COMPONENT_COUNT>
1

> <PUBCHEM_CACTVS_TAUTO_COUNT>
-1

> <PUBCHEM_COORDINATE_TYPE>
1
5
255

> <PUBCHEM_BONDANNOTATIONS>
10  12  8
11  12  8
3  7  3
6  8  8
6  9  8
8  10  8
9  11  8

$$$$
