31952
  -OEChem-05122609422D

 18 18  0     0  0  0  0  0  0999 V2000
    5.4641   -1.0000    0.0000 Br  0  0  0  0  0  0  0  0  0  0  0  0
    3.7321   -2.0000    0.0000 Br  0  0  0  0  0  0  0  0  0  0  0  0
    3.7321    2.0000    0.0000 Br  0  0  0  0  0  0  0  0  0  0  0  0
    2.0000    1.0000    0.0000 Br  0  0  0  0  0  0  0  0  0  0  0  0
    4.5981    0.5000    0.0000 C   0  0  0  0  0  0  0  0  0  0  0  0
    2.8660   -0.5000    0.0000 C   0  0  0  0  0  0  0  0  0  0  0  0
    4.5981   -0.5000    0.0000 C   0  0  0  0  0  0  0  0  0  0  0  0
    3.7321   -1.0000    0.0000 C   0  0  0  0  0  0  0  0  0  0  0  0
    3.7321    1.0000    0.0000 C   0  0  0  0  0  0  0  0  0  0  0  0
    2.8660    0.5000    0.0000 C   0  0  0  0  0  0  0  0  0  0  0  0
    5.4641    1.0000    0.0000 C   0  0  0  0  0  0  0  0  0  0  0  0
    2.0000   -1.0000    0.0000 C   0  0  0  0  0  0  0  0  0  0  0  0
    5.7741    0.4631    0.0000 H   0  0  0  0  0  0  0  0  0  0  0  0
    6.0010    1.3100    0.0000 H   0  0  0  0  0  0  0  0  0  0  0  0
    5.1541    1.5369    0.0000 H   0  0  0  0  0  0  0  0  0  0  0  0
    1.6900   -0.4631    0.0000 H   0  0  0  0  0  0  0  0  0  0  0  0
    1.4631   -1.3100    0.0000 H   0  0  0  0  0  0  0  0  0  0  0  0
    2.3100   -1.5369    0.0000 H   0  0  0  0  0  0  0  0  0  0  0  0
  1  7  1  0  0  0  0
  2  8  1  0  0  0  0
  3  9  1  0  0  0  0
  4 10  1  0  0  0  0
  5  7  2  0  0  0  0
  5  9  1  0  0  0  0
  5 11  1  0  0  0  0
  6  8  2  0  0  0  0
  6 10  1  0  0  0  0
  6 12  1  0  0  0  0
  7  8  1  0  0  0  0
  9 10  2  0  0  0  0
 11 13  1  0  0  0  0
 11 14  1  0  0  0  0
 11 15  1  0  0  0  0
 12 16  1  0  0  0  0
 12 17  1  0  0  0  0
 12 18  1  0  0  0  0
M  END
> <PUBCHEM_COMPOUND_CID>
31952

> <PUBCHEM_COMPOUND_CANONICALIZED>
1

> <PUBCHEM_CACTVS_COMPLEXITY>
127

> <PUBCHEM_CACTVS_HBOND_ACCEPTOR>
0

> <PUBCHEM_CACTVS_HBOND_DONOR>
0

> <PUBCHEM_CACTVS_ROTATABLE_BOND>
0

> <PUBCHEM_CACTVS_SUBSKEYS>
AAADcYBwAAAAHAAAAAAAAAAAAAAAAAAAAAAwAAAAAAAAAAABAAAAGABAAAABrACAGAACAIAAAACAAgBAAAACAAAgAAQAiAAAAKgIICKAEBCAIAAggAAIihcAgAAOQAAEEAAggAGAAAggAEEAAgAAAAAAAA==

> <PUBCHEM_IUPAC_OPENEYE_NAME>
1,2,4,5-tetrabromo-3,6-dimethyl-benzene

> <PUBCHEM_IUPAC_CAS_NAME>
1,2,4,5-tetrabromo-3,6-dimethylbenzene

> <PUBCHEM_IUPAC_NAME_MARKUP>
1,2,4,5-tetrabromo-3,6-dimethylbenzene

> <PUBCHEM_IUPAC_NAME>
1,2,4,5-tetrabromo-3,6-dimethylbenzene

> <PUBCHEM_IUPAC_SYSTEMATIC_NAME>
1,2,4,5-tetrakis(bromanyl)-3,6-dimethyl-benzene

> <PUBCHEM_IUPAC_TRADITIONAL_NAME>
1,2,4,5-tetrabromo-3,6-dimethyl-benzene

> <PUBCHEM_IUPAC_INCHI>
InChI=1S/C8H6Br4/c1-3-5(9)7(11)4(2)8(12)6(3)10/h1-2H3

> <PUBCHEM_IUPAC_INCHIKEY>
RXKOKVQKECXYOT-UHFFFAOYSA-N

> <PUBCHEM_XLOGP3_AA>
5.4

> <PUBCHEM_EXACT_MASS>
421.71620

> <PUBCHEM_MOLECULAR_FORMULA>
C8H6Br4

> <PUBCHEM_MOLECULAR_WEIGHT>
421.75

> <PUBCHEM_SMILES>
CC1=C(C(=C(C(=C1Br)Br)C)Br)Br

> <PUBCHEM_CONNECTIVITY_SMILES>
CC1=C(C(=C(C(=C1Br)Br)C)Br)Br

> <PUBCHEM_CACTVS_TPSA>
0

> <PUBCHEM_MONOISOTOPIC_WEIGHT>
417.72030

> <PUBCHEM_TOTAL_CHARGE>
0

> <PUBCHEM_HEAVY_ATOM_COUNT>
12

> <PUBCHEM_ATOM_DEF_STEREO_COUNT>
0

> <PUBCHEM_ATOM_UDEF_STEREO_COUNT>
0

> <PUBCHEM_BOND_DEF_STEREO_COUNT>
0

> <PUBCHEM_BOND_UDEF_STEREO_COUNT>
0

> <PUBCHEM_ISOTOPIC_ATOM_COUNT>
0

> <PUBCHEM_COMPONENT_COUNT>
1

> <PUBCHEM_CACTVS_TAUTO_COUNT>
-1

> <PUBCHEM_COORDINATE_TYPE>
1
5
255

> <PUBCHEM_BONDANNOTATIONS>
5  7  8
5  9  8
6  10  8
6  8  8
7  8  8
9  10  8

$$$$
