3290414
  -OEChem-05122609432D

 23 24  0     0  0  0  0  0  0999 V2000
    5.4641   -1.2057    0.0000 Br  0  0  0  0  0  0  0  0  0  0  0  0
    5.7017    0.1416    0.0000 Br  0  0  0  0  0  0  0  0  0  0  0  0
    2.0000   -1.2057    0.0000 Br  0  0  0  0  0  0  0  0  0  0  0  0
    2.4465    1.3264    0.0000 Br  0  0  0  0  0  0  0  0  0  0  0  0
    2.0000   -3.2057    0.0000 Br  0  0  0  0  0  0  0  0  0  0  0  0
    3.1305    3.2057    0.0000 Br  0  0  0  0  0  0  0  0  0  0  0  0
    5.4641   -3.2057    0.0000 Br  0  0  0  0  0  0  0  0  0  0  0  0
    6.3857    2.0209    0.0000 Br  0  0  0  0  0  0  0  0  0  0  0  0
    3.7321   -0.2057    0.0000 O   0  0  0  0  0  0  0  0  0  0  0  0
    3.7321   -1.2057    0.0000 C   0  0  0  0  0  0  0  0  0  0  0  0
    4.0741    0.7340    0.0000 C   0  0  0  0  0  0  0  0  0  0  0  0
    4.5981   -1.7057    0.0000 C   0  0  0  0  0  0  0  0  0  0  0  0
    5.0589    0.9076    0.0000 C   0  0  0  0  0  0  0  0  0  0  0  0
    2.8660   -1.7057    0.0000 C   0  0  0  0  0  0  0  0  0  0  0  0
    3.4313    1.5000    0.0000 C   0  0  0  0  0  0  0  0  0  0  0  0
    2.8660   -2.7057    0.0000 C   0  0  0  0  0  0  0  0  0  0  0  0
    3.7733    2.4397    0.0000 C   0  0  0  0  0  0  0  0  0  0  0  0
    4.5981   -2.7057    0.0000 C   0  0  0  0  0  0  0  0  0  0  0  0
    5.4009    1.8473    0.0000 C   0  0  0  0  0  0  0  0  0  0  0  0
    3.7321   -3.2057    0.0000 C   0  0  0  0  0  0  0  0  0  0  0  0
    4.7581    2.6133    0.0000 C   0  0  0  0  0  0  0  0  0  0  0  0
    3.7321   -3.8257    0.0000 H   0  0  0  0  0  0  0  0  0  0  0  0
    4.9702    3.1960    0.0000 H   0  0  0  0  0  0  0  0  0  0  0  0
  1 12  1  0  0  0  0
  2 13  1  0  0  0  0
  3 14  1  0  0  0  0
  4 15  1  0  0  0  0
  5 16  1  0  0  0  0
  6 17  1  0  0  0  0
  7 18  1  0  0  0  0
  8 19  1  0  0  0  0
  9 10  1  0  0  0  0
  9 11  1  0  0  0  0
 10 12  2  0  0  0  0
 10 14  1  0  0  0  0
 11 13  2  0  0  0  0
 11 15  1  0  0  0  0
 12 18  1  0  0  0  0
 13 19  1  0  0  0  0
 14 16  2  0  0  0  0
 15 17  2  0  0  0  0
 16 20  1  0  0  0  0
 17 21  1  0  0  0  0
 18 20  2  0  0  0  0
 19 21  2  0  0  0  0
 20 22  1  0  0  0  0
 21 23  1  0  0  0  0
M  END
> <PUBCHEM_COMPOUND_CID>
3290414

> <PUBCHEM_COMPOUND_CANONICALIZED>
1

> <PUBCHEM_CACTVS_COMPLEXITY>
298

> <PUBCHEM_CACTVS_HBOND_ACCEPTOR>
1

> <PUBCHEM_CACTVS_HBOND_DONOR>
0

> <PUBCHEM_CACTVS_ROTATABLE_BOND>
2

> <PUBCHEM_CACTVS_SUBSKEYS>
AAADcQBwIAAAHAAAAAAAAAAAAAAAAAAAAAAwYAAAAAAAAAABQAAAGgBAAAABqASAkAAwBoAABACAACBCAAACCAAgIAQAiAAECKgMJiKEMBqCOCCkwBEIqheAQAAAAAAEAIAgBAEAAAgBAEAIAgAAAAAAAA==

> <PUBCHEM_IUPAC_OPENEYE_NAME>
1,2,4,5-tetrabromo-3-(2,3,5,6-tetrabromophenoxy)benzene

> <PUBCHEM_IUPAC_CAS_NAME>
1,2,4,5-tetrabromo-3-(2,3,5,6-tetrabromophenoxy)benzene

> <PUBCHEM_IUPAC_NAME_MARKUP>
1,2,4,5-tetrabromo-3-(2,3,5,6-tetrabromophenoxy)benzene

> <PUBCHEM_IUPAC_NAME>
1,2,4,5-tetrabromo-3-(2,3,5,6-tetrabromophenoxy)benzene

> <PUBCHEM_IUPAC_SYSTEMATIC_NAME>
1,2,4,5-tetrakis(bromanyl)-3-[2,3,5,6-tetrakis(bromanyl)phenoxy]benzene

> <PUBCHEM_IUPAC_TRADITIONAL_NAME>
1,2,4,5-tetrabromo-3-(2,3,5,6-tetrabromophenoxy)benzene

> <PUBCHEM_IUPAC_INCHI>
InChI=1S/C12H2Br8O/c13-3-1-4(14)8(18)11(7(3)17)21-12-9(19)5(15)2-6(16)10(12)20/h1-2H

> <PUBCHEM_IUPAC_INCHIKEY>
AHNZLQAZTWRRDW-UHFFFAOYSA-N

> <PUBCHEM_XLOGP3_AA>
9

> <PUBCHEM_EXACT_MASS>
801.34907

> <PUBCHEM_MOLECULAR_FORMULA>
C12H2Br8O

> <PUBCHEM_MOLECULAR_WEIGHT>
801.4

> <PUBCHEM_SMILES>
C1=C(C(=C(C(=C1Br)Br)OC2=C(C(=CC(=C2Br)Br)Br)Br)Br)Br

> <PUBCHEM_CONNECTIVITY_SMILES>
C1=C(C(=C(C(=C1Br)Br)OC2=C(C(=CC(=C2Br)Br)Br)Br)Br)Br

> <PUBCHEM_CACTVS_TPSA>
9.2

> <PUBCHEM_MONOISOTOPIC_WEIGHT>
793.35727

> <PUBCHEM_TOTAL_CHARGE>
0

> <PUBCHEM_HEAVY_ATOM_COUNT>
21

> <PUBCHEM_ATOM_DEF_STEREO_COUNT>
0

> <PUBCHEM_ATOM_UDEF_STEREO_COUNT>
0

> <PUBCHEM_BOND_DEF_STEREO_COUNT>
0

> <PUBCHEM_BOND_UDEF_STEREO_COUNT>
0

> <PUBCHEM_ISOTOPIC_ATOM_COUNT>
0

> <PUBCHEM_COMPONENT_COUNT>
1

> <PUBCHEM_CACTVS_TAUTO_COUNT>
-1

> <PUBCHEM_COORDINATE_TYPE>
1
5
255

> <PUBCHEM_BONDANNOTATIONS>
10  12  8
10  14  8
11  13  8
11  15  8
12  18  8
13  19  8
14  16  8
15  17  8
16  20  8
17  21  8
18  20  8
19  21  8

$$$$
