33263
  -OEChem-05122608082D

 55 57  0     0  0  0  0  0  0999 V2000
    6.2619    2.1651    0.0000 O   0  0  0  0  0  0  0  0  0  0  0  0
    5.2619    0.4330    0.0000 N   0  0  0  0  0  0  0  0  0  0  0  0
    4.6783   -0.3717    0.0000 N   0  0  0  0  0  0  0  0  0  0  0  0
    4.6783    1.2378    0.0000 N   0  0  0  0  0  0  0  0  0  0  0  0
    8.2619    2.1651    0.0000 C   0  0  0  0  0  0  0  0  0  0  0  0
    8.2619   -1.2990    0.0000 C   0  0  0  0  0  0  0  0  0  0  0  0
    7.7619    1.2990    0.0000 C   0  0  0  0  0  0  0  0  0  0  0  0
    7.7619   -0.4330    0.0000 C   0  0  0  0  0  0  0  0  0  0  0  0
    8.7619    3.0311    0.0000 C   0  0  0  0  0  0  0  0  0  0  0  0
    8.7619   -2.1651    0.0000 C   0  0  0  0  0  0  0  0  0  0  0  0
    8.2619    0.4330    0.0000 C   0  0  0  0  0  0  0  0  0  0  0  0
    9.1279    1.6651    0.0000 C   0  0  0  0  0  0  0  0  0  0  0  0
    7.3959    2.6651    0.0000 C   0  0  0  0  0  0  0  0  0  0  0  0
    7.3959   -1.7990    0.0000 C   0  0  0  0  0  0  0  0  0  0  0  0
    9.1279   -0.7990    0.0000 C   0  0  0  0  0  0  0  0  0  0  0  0
    6.7619    1.2990    0.0000 C   0  0  0  0  0  0  0  0  0  0  0  0
    6.7619   -0.4330    0.0000 C   0  0  0  0  0  0  0  0  0  0  0  0
    6.2619    0.4330    0.0000 C   0  0  0  0  0  0  0  0  0  0  0  0
    9.7619    3.0311    0.0000 C   0  0  0  0  0  0  0  0  0  0  0  0
    8.2619   -3.0311    0.0000 C   0  0  0  0  0  0  0  0  0  0  0  0
    3.7321   -0.0670    0.0000 C   0  0  0  0  0  0  0  0  0  0  0  0
    3.7321    0.9330    0.0000 C   0  0  0  0  0  0  0  0  0  0  0  0
    2.8660   -0.5670    0.0000 C   0  0  0  0  0  0  0  0  0  0  0  0
    2.8660    1.4330    0.0000 C   0  0  0  0  0  0  0  0  0  0  0  0
    2.0000   -0.0670    0.0000 C   0  0  0  0  0  0  0  0  0  0  0  0
    2.0000    0.9330    0.0000 C   0  0  0  0  0  0  0  0  0  0  0  0
    8.8695    3.6417    0.0000 H   0  0  0  0  0  0  0  0  0  0  0  0
    8.1793    3.2431    0.0000 H   0  0  0  0  0  0  0  0  0  0  0  0
    9.2368   -2.5636    0.0000 H   0  0  0  0  0  0  0  0  0  0  0  0
    9.2368   -1.7665    0.0000 H   0  0  0  0  0  0  0  0  0  0  0  0
    8.8819    0.4330    0.0000 H   0  0  0  0  0  0  0  0  0  0  0  0
    8.8179    1.1281    0.0000 H   0  0  0  0  0  0  0  0  0  0  0  0
    9.6648    1.3551    0.0000 H   0  0  0  0  0  0  0  0  0  0  0  0
    9.4379    2.2020    0.0000 H   0  0  0  0  0  0  0  0  0  0  0  0
    7.7059    3.2020    0.0000 H   0  0  0  0  0  0  0  0  0  0  0  0
    6.8589    2.9751    0.0000 H   0  0  0  0  0  0  0  0  0  0  0  0
    7.0859    2.1281    0.0000 H   0  0  0  0  0  0  0  0  0  0  0  0
    7.0859   -1.2621    0.0000 H   0  0  0  0  0  0  0  0  0  0  0  0
    6.8589   -2.1090    0.0000 H   0  0  0  0  0  0  0  0  0  0  0  0
    7.7059   -2.3360    0.0000 H   0  0  0  0  0  0  0  0  0  0  0  0
    9.4379   -1.3360    0.0000 H   0  0  0  0  0  0  0  0  0  0  0  0
    9.6648   -0.4890    0.0000 H   0  0  0  0  0  0  0  0  0  0  0  0
    8.8179   -0.2621    0.0000 H   0  0  0  0  0  0  0  0  0  0  0  0
    6.4519   -0.9699    0.0000 H   0  0  0  0  0  0  0  0  0  0  0  0
    9.7619    2.4111    0.0000 H   0  0  0  0  0  0  0  0  0  0  0  0
   10.3819    3.0311    0.0000 H   0  0  0  0  0  0  0  0  0  0  0  0
    9.7619    3.6511    0.0000 H   0  0  0  0  0  0  0  0  0  0  0  0
    7.7249   -2.7211    0.0000 H   0  0  0  0  0  0  0  0  0  0  0  0
    7.9519   -3.5680    0.0000 H   0  0  0  0  0  0  0  0  0  0  0  0
    8.7988   -3.3411    0.0000 H   0  0  0  0  0  0  0  0  0  0  0  0
    5.6419    2.1651    0.0000 H   0  0  0  0  0  0  0  0  0  0  0  0
    2.8660   -1.1870    0.0000 H   0  0  0  0  0  0  0  0  0  0  0  0
    2.8660    2.0530    0.0000 H   0  0  0  0  0  0  0  0  0  0  0  0
    1.4631   -0.3770    0.0000 H   0  0  0  0  0  0  0  0  0  0  0  0
    1.4631    1.2430    0.0000 H   0  0  0  0  0  0  0  0  0  0  0  0
  1 16  1  0  0  0  0
  1 51  1  0  0  0  0
  2  3  1  0  0  0  0
  2  4  1  0  0  0  0
  2 18  1  0  0  0  0
  3 21  2  0  0  0  0
  4 22  2  0  0  0  0
  5  7  1  0  0  0  0
  5  9  1  0  0  0  0
  5 12  1  0  0  0  0
  5 13  1  0  0  0  0
  6  8  1  0  0  0  0
  6 10  1  0  0  0  0
  6 14  1  0  0  0  0
  6 15  1  0  0  0  0
  7 11  1  0  0  0  0
  7 16  2  0  0  0  0
  8 11  2  0  0  0  0
  8 17  1  0  0  0  0
  9 19  1  0  0  0  0
  9 27  1  0  0  0  0
  9 28  1  0  0  0  0
 10 20  1  0  0  0  0
 10 29  1  0  0  0  0
 10 30  1  0  0  0  0
 11 31  1  0  0  0  0
 12 32  1  0  0  0  0
 12 33  1  0  0  0  0
 12 34  1  0  0  0  0
 13 35  1  0  0  0  0
 13 36  1  0  0  0  0
 13 37  1  0  0  0  0
 14 38  1  0  0  0  0
 14 39  1  0  0  0  0
 14 40  1  0  0  0  0
 15 41  1  0  0  0  0
 15 42  1  0  0  0  0
 15 43  1  0  0  0  0
 16 18  1  0  0  0  0
 17 18  2  0  0  0  0
 17 44  1  0  0  0  0
 19 45  1  0  0  0  0
 19 46  1  0  0  0  0
 19 47  1  0  0  0  0
 20 48  1  0  0  0  0
 20 49  1  0  0  0  0
 20 50  1  0  0  0  0
 21 22  1  0  0  0  0
 21 23  1  0  0  0  0
 22 24  1  0  0  0  0
 23 25  2  0  0  0  0
 23 52  1  0  0  0  0
 24 26  2  0  0  0  0
 24 53  1  0  0  0  0
 25 26  1  0  0  0  0
 25 54  1  0  0  0  0
 26 55  1  0  0  0  0
M  END
> <PUBCHEM_COMPOUND_CID>
33263

> <PUBCHEM_COMPOUND_CANONICALIZED>
1

> <PUBCHEM_CACTVS_COMPLEXITY>
464

> <PUBCHEM_CACTVS_HBOND_ACCEPTOR>
3

> <PUBCHEM_CACTVS_HBOND_DONOR>
1

> <PUBCHEM_CACTVS_ROTATABLE_BOND>
5

> <PUBCHEM_CACTVS_SUBSKEYS>
AAADceB7IAAAAAAAAAAAAAAAAAAAAWAAAAAwYAAAAAAAAFgB9AAAHgAICAAADgyBngAyxrAAAgCiAyRiQACSBAQgMgAYmCA1fJgKZqKSkZOAcABkyBEI2AeQwPAPoAACQAAIECBAAASAABAgQAAAAAAAAA==

> <PUBCHEM_IUPAC_OPENEYE_NAME>
2-(benzotriazol-2-yl)-4,6-bis(1,1-dimethylpropyl)phenol

> <PUBCHEM_IUPAC_CAS_NAME>
2-(2-benzotriazolyl)-4,6-bis(2-methylbutan-2-yl)phenol

> <PUBCHEM_IUPAC_NAME_MARKUP>
2-(benzotriazol-2-yl)-4,6-bis(2-methylbutan-2-yl)phenol

> <PUBCHEM_IUPAC_NAME>
2-(benzotriazol-2-yl)-4,6-bis(2-methylbutan-2-yl)phenol

> <PUBCHEM_IUPAC_SYSTEMATIC_NAME>
2-(benzotriazol-2-yl)-4,6-bis(2-methylbutan-2-yl)phenol

> <PUBCHEM_IUPAC_TRADITIONAL_NAME>
2,4-ditert-amyl-6-(benzotriazol-2-yl)phenol

> <PUBCHEM_IUPAC_INCHI>
InChI=1S/C22H29N3O/c1-7-21(3,4)15-13-16(22(5,6)8-2)20(26)19(14-15)25-23-17-11-9-10-12-18(17)24-25/h9-14,26H,7-8H2,1-6H3

> <PUBCHEM_IUPAC_INCHIKEY>
ZMWRRFHBXARRRT-UHFFFAOYSA-N

> <PUBCHEM_XLOGP3_AA>
7.4

> <PUBCHEM_EXACT_MASS>
351.231062557

> <PUBCHEM_MOLECULAR_FORMULA>
C22H29N3O

> <PUBCHEM_MOLECULAR_WEIGHT>
351.5

> <PUBCHEM_SMILES>
CCC(C)(C)C1=CC(=C(C(=C1)N2N=C3C=CC=CC3=N2)O)C(C)(C)CC

> <PUBCHEM_CONNECTIVITY_SMILES>
CCC(C)(C)C1=CC(=C(C(=C1)N2N=C3C=CC=CC3=N2)O)C(C)(C)CC

> <PUBCHEM_CACTVS_TPSA>
50.9

> <PUBCHEM_MONOISOTOPIC_WEIGHT>
351.231062557

> <PUBCHEM_TOTAL_CHARGE>
0

> <PUBCHEM_HEAVY_ATOM_COUNT>
26

> <PUBCHEM_ATOM_DEF_STEREO_COUNT>
0

> <PUBCHEM_ATOM_UDEF_STEREO_COUNT>
0

> <PUBCHEM_BOND_DEF_STEREO_COUNT>
0

> <PUBCHEM_BOND_UDEF_STEREO_COUNT>
0

> <PUBCHEM_ISOTOPIC_ATOM_COUNT>
0

> <PUBCHEM_COMPONENT_COUNT>
1

> <PUBCHEM_CACTVS_TAUTO_COUNT>
-1

> <PUBCHEM_COORDINATE_TYPE>
1
5
255

> <PUBCHEM_BONDANNOTATIONS>
16  18  8
17  18  8
2  3  8
2  4  8
21  22  8
21  23  8
22  24  8
23  25  8
24  26  8
25  26  8
3  21  8
4  22  8
7  11  8
7  16  8
8  11  8
8  17  8

$$$$
