33661
  -OEChem-05122608102D

 65 67  0     0  0  0  0  0  0999 V2000
    5.5000    0.0000    0.0000 P   0  0  0  0  0  0  0  0  0  0  0  0
    6.3660    0.5000    0.0000 O   0  0  0  0  0  0  0  0  0  0  0  0
    5.0000    0.8660    0.0000 O   0  0  0  0  0  0  0  0  0  0  0  0
    4.6340   -0.5000    0.0000 O   0  0  0  0  0  0  0  0  0  0  0  0
    6.0000   -0.8660    0.0000 O   0  0  0  0  0  0  0  0  0  0  0  0
    8.0981    1.5000    0.0000 C   0  0  0  0  0  0  0  0  0  0  0  0
    4.0000    2.5981    0.0000 C   0  0  0  0  0  0  0  0  0  0  0  0
    2.9019   -1.5000    0.0000 C   0  0  0  0  0  0  0  0  0  0  0  0
    7.2321    2.0000    0.0000 C   0  0  0  0  0  0  0  0  0  0  0  0
    3.5000    1.7321    0.0000 C   0  0  0  0  0  0  0  0  0  0  0  0
    3.7680   -2.0000    0.0000 C   0  0  0  0  0  0  0  0  0  0  0  0
    6.3660    1.5000    0.0000 C   0  0  0  0  0  0  0  0  0  0  0  0
    4.0000    0.8660    0.0000 C   0  0  0  0  0  0  0  0  0  0  0  0
    4.6340   -1.5000    0.0000 C   0  0  0  0  0  0  0  0  0  0  0  0
    8.9641    2.0000    0.0000 C   0  0  0  0  0  0  0  0  0  0  0  0
    8.0981    0.5000    0.0000 C   0  0  0  0  0  0  0  0  0  0  0  0
    3.5000    3.4641    0.0000 C   0  0  0  0  0  0  0  0  0  0  0  0
    5.0000    2.5981    0.0000 C   0  0  0  0  0  0  0  0  0  0  0  0
    2.0359   -2.0000    0.0000 C   0  0  0  0  0  0  0  0  0  0  0  0
    2.9019   -0.5000    0.0000 C   0  0  0  0  0  0  0  0  0  0  0  0
    7.2321    3.0000    0.0000 C   0  0  0  0  0  0  0  0  0  0  0  0
    2.5000    1.7321    0.0000 C   0  0  0  0  0  0  0  0  0  0  0  0
    3.7680   -3.0000    0.0000 C   0  0  0  0  0  0  0  0  0  0  0  0
    5.5000    2.0000    0.0000 C   0  0  0  0  0  0  0  0  0  0  0  0
    3.5000   -0.0000    0.0000 C   0  0  0  0  0  0  0  0  0  0  0  0
    5.5000   -2.0000    0.0000 C   0  0  0  0  0  0  0  0  0  0  0  0
    6.3660    3.5000    0.0000 C   0  0  0  0  0  0  0  0  0  0  0  0
    2.0000    0.8660    0.0000 C   0  0  0  0  0  0  0  0  0  0  0  0
    4.6340   -3.5000    0.0000 C   0  0  0  0  0  0  0  0  0  0  0  0
    5.5000    3.0000    0.0000 C   0  0  0  0  0  0  0  0  0  0  0  0
    2.5000    0.0000    0.0000 C   0  0  0  0  0  0  0  0  0  0  0  0
    5.5000   -3.0000    0.0000 C   0  0  0  0  0  0  0  0  0  0  0  0
    7.5611    1.1900    0.0000 H   0  0  0  0  0  0  0  0  0  0  0  0
    4.3100    2.0611    0.0000 H   0  0  0  0  0  0  0  0  0  0  0  0
    3.4389   -1.1900    0.0000 H   0  0  0  0  0  0  0  0  0  0  0  0
    9.2741    1.4631    0.0000 H   0  0  0  0  0  0  0  0  0  0  0  0
    9.5010    2.3100    0.0000 H   0  0  0  0  0  0  0  0  0  0  0  0
    8.6541    2.5369    0.0000 H   0  0  0  0  0  0  0  0  0  0  0  0
    7.4781    0.5000    0.0000 H   0  0  0  0  0  0  0  0  0  0  0  0
    8.0981   -0.1200    0.0000 H   0  0  0  0  0  0  0  0  0  0  0  0
    8.7181    0.5000    0.0000 H   0  0  0  0  0  0  0  0  0  0  0  0
    4.0369    3.7741    0.0000 H   0  0  0  0  0  0  0  0  0  0  0  0
    3.1900    4.0010    0.0000 H   0  0  0  0  0  0  0  0  0  0  0  0
    2.9631    3.1541    0.0000 H   0  0  0  0  0  0  0  0  0  0  0  0
    5.0000    1.9781    0.0000 H   0  0  0  0  0  0  0  0  0  0  0  0
    5.6200    2.5981    0.0000 H   0  0  0  0  0  0  0  0  0  0  0  0
    5.0000    3.2181    0.0000 H   0  0  0  0  0  0  0  0  0  0  0  0
    1.7259   -1.4631    0.0000 H   0  0  0  0  0  0  0  0  0  0  0  0
    1.4990   -2.3100    0.0000 H   0  0  0  0  0  0  0  0  0  0  0  0
    2.3459   -2.5369    0.0000 H   0  0  0  0  0  0  0  0  0  0  0  0
    3.5219   -0.5000    0.0000 H   0  0  0  0  0  0  0  0  0  0  0  0
    2.9019    0.1200    0.0000 H   0  0  0  0  0  0  0  0  0  0  0  0
    2.2819   -0.5000    0.0000 H   0  0  0  0  0  0  0  0  0  0  0  0
    7.7690    3.3100    0.0000 H   0  0  0  0  0  0  0  0  0  0  0  0
    2.1900    2.2690    0.0000 H   0  0  0  0  0  0  0  0  0  0  0  0
    3.2310   -3.3100    0.0000 H   0  0  0  0  0  0  0  0  0  0  0  0
    4.9631    1.6900    0.0000 H   0  0  0  0  0  0  0  0  0  0  0  0
    3.8100   -0.5369    0.0000 H   0  0  0  0  0  0  0  0  0  0  0  0
    6.0369   -1.6900    0.0000 H   0  0  0  0  0  0  0  0  0  0  0  0
    6.3660    4.1200    0.0000 H   0  0  0  0  0  0  0  0  0  0  0  0
    1.3800    0.8660    0.0000 H   0  0  0  0  0  0  0  0  0  0  0  0
    4.6340   -4.1200    0.0000 H   0  0  0  0  0  0  0  0  0  0  0  0
    4.9631    3.3100    0.0000 H   0  0  0  0  0  0  0  0  0  0  0  0
    2.1900   -0.5369    0.0000 H   0  0  0  0  0  0  0  0  0  0  0  0
    6.0369   -3.3100    0.0000 H   0  0  0  0  0  0  0  0  0  0  0  0
  1  2  1  0  0  0  0
  1  3  1  0  0  0  0
  1  4  1  0  0  0  0
  1  5  2  0  0  0  0
  2 12  1  0  0  0  0
  3 13  1  0  0  0  0
  4 14  1  0  0  0  0
  6  9  1  0  0  0  0
  6 15  1  0  0  0  0
  6 16  1  0  0  0  0
  6 33  1  0  0  0  0
  7 10  1  0  0  0  0
  7 17  1  0  0  0  0
  7 18  1  0  0  0  0
  7 34  1  0  0  0  0
  8 11  1  0  0  0  0
  8 19  1  0  0  0  0
  8 20  1  0  0  0  0
  8 35  1  0  0  0  0
  9 12  1  0  0  0  0
  9 21  2  0  0  0  0
 10 13  1  0  0  0  0
 10 22  2  0  0  0  0
 11 14  1  0  0  0  0
 11 23  2  0  0  0  0
 12 24  2  0  0  0  0
 13 25  2  0  0  0  0
 14 26  2  0  0  0  0
 15 36  1  0  0  0  0
 15 37  1  0  0  0  0
 15 38  1  0  0  0  0
 16 39  1  0  0  0  0
 16 40  1  0  0  0  0
 16 41  1  0  0  0  0
 17 42  1  0  0  0  0
 17 43  1  0  0  0  0
 17 44  1  0  0  0  0
 18 45  1  0  0  0  0
 18 46  1  0  0  0  0
 18 47  1  0  0  0  0
 19 48  1  0  0  0  0
 19 49  1  0  0  0  0
 19 50  1  0  0  0  0
 20 51  1  0  0  0  0
 20 52  1  0  0  0  0
 20 53  1  0  0  0  0
 21 27  1  0  0  0  0
 21 54  1  0  0  0  0
 22 28  1  0  0  0  0
 22 55  1  0  0  0  0
 23 29  1  0  0  0  0
 23 56  1  0  0  0  0
 24 30  1  0  0  0  0
 24 57  1  0  0  0  0
 25 31  1  0  0  0  0
 25 58  1  0  0  0  0
 26 32  1  0  0  0  0
 26 59  1  0  0  0  0
 27 30  2  0  0  0  0
 27 60  1  0  0  0  0
 28 31  2  0  0  0  0
 28 61  1  0  0  0  0
 29 32  2  0  0  0  0
 29 62  1  0  0  0  0
 30 63  1  0  0  0  0
 31 64  1  0  0  0  0
 32 65  1  0  0  0  0
M  END
> <PUBCHEM_COMPOUND_CID>
33661

> <PUBCHEM_COMPOUND_CANONICALIZED>
1

> <PUBCHEM_CACTVS_COMPLEXITY>
524

> <PUBCHEM_CACTVS_HBOND_ACCEPTOR>
4

> <PUBCHEM_CACTVS_HBOND_DONOR>
0

> <PUBCHEM_CACTVS_ROTATABLE_BOND>
9

> <PUBCHEM_CACTVS_SUBSKEYS>
AAADcfB4OAIAAAAAAAAAAAAAAAAAAAAAAAAwYMAAAAAAAAABUAAAGgAAACAADQSAmAAyBoAAARCAQiBCAIACAAAgIAAIiAAGCIgIJiKAERKAMAAkwBEIiAeAwOAOgAAAAAAIAAAAAAAAABAAAAAAAAAAAA==

> <PUBCHEM_IUPAC_OPENEYE_NAME>
tris(2-isopropylphenyl) phosphate

> <PUBCHEM_IUPAC_CAS_NAME>
phosphoric acid tris(2-propan-2-ylphenyl) ester

> <PUBCHEM_IUPAC_NAME_MARKUP>
tris(2-propan-2-ylphenyl) phosphate

> <PUBCHEM_IUPAC_NAME>
tris(2-propan-2-ylphenyl) phosphate

> <PUBCHEM_IUPAC_SYSTEMATIC_NAME>
tris(2-propan-2-ylphenyl) phosphate

> <PUBCHEM_IUPAC_TRADITIONAL_NAME>
phosphoric acid tris(o-cumenyl) ester

> <PUBCHEM_IUPAC_INCHI>
InChI=1S/C27H33O4P/c1-19(2)22-13-7-10-16-25(22)29-32(28,30-26-17-11-8-14-23(26)20(3)4)31-27-18-12-9-15-24(27)21(5)6/h7-21H,1-6H3

> <PUBCHEM_IUPAC_INCHIKEY>
LIPMRGQQBZJCTM-UHFFFAOYSA-N

> <PUBCHEM_XLOGP3_AA>
8.3

> <PUBCHEM_EXACT_MASS>
452.21164653

> <PUBCHEM_MOLECULAR_FORMULA>
C27H33O4P

> <PUBCHEM_MOLECULAR_WEIGHT>
452.5

> <PUBCHEM_SMILES>
CC(C)C1=CC=CC=C1OP(=O)(OC2=CC=CC=C2C(C)C)OC3=CC=CC=C3C(C)C

> <PUBCHEM_CONNECTIVITY_SMILES>
CC(C)C1=CC=CC=C1OP(=O)(OC2=CC=CC=C2C(C)C)OC3=CC=CC=C3C(C)C

> <PUBCHEM_CACTVS_TPSA>
44.8

> <PUBCHEM_MONOISOTOPIC_WEIGHT>
452.21164653

> <PUBCHEM_TOTAL_CHARGE>
0

> <PUBCHEM_HEAVY_ATOM_COUNT>
32

> <PUBCHEM_ATOM_DEF_STEREO_COUNT>
0

> <PUBCHEM_ATOM_UDEF_STEREO_COUNT>
0

> <PUBCHEM_BOND_DEF_STEREO_COUNT>
0

> <PUBCHEM_BOND_UDEF_STEREO_COUNT>
0

> <PUBCHEM_ISOTOPIC_ATOM_COUNT>
0

> <PUBCHEM_COMPONENT_COUNT>
1

> <PUBCHEM_CACTVS_TAUTO_COUNT>
-1

> <PUBCHEM_COORDINATE_TYPE>
1
5
255

> <PUBCHEM_BONDANNOTATIONS>
10  13  8
10  22  8
11  14  8
11  23  8
12  24  8
13  25  8
14  26  8
21  27  8
22  28  8
23  29  8
24  30  8
25  31  8
26  32  8
27  30  8
28  31  8
29  32  8
9  12  8
9  21  8

$$$$
