33979
  -OEChem-05122609502D

 84 83  0     1  0  0  0  0  0999 V2000
   14.9904    0.8100    0.0000 O   0  0  0  0  0  0  0  0  0  0  0  0
   12.3923    0.3100    0.0000 O   0  0  0  0  0  0  0  0  0  0  0  0
   15.8564   -0.6900    0.0000 O   0  0  0  0  0  0  0  0  0  0  0  0
   11.5263    1.8100    0.0000 O   0  0  0  0  0  0  0  0  0  0  0  0
   13.2583   -1.1900    0.0000 O   0  0  0  0  0  0  0  0  0  0  0  0
   20.1865    0.8100    0.0000 C   0  0  0  0  0  0  0  0  0  0  0  0
   21.0526    0.3100    0.0000 C   0  0  0  0  0  0  0  0  0  0  0  0
    7.1962    0.3100    0.0000 C   0  0  0  0  0  0  0  0  0  0  0  0
    6.3301    0.8100    0.0000 C   0  0  0  0  0  0  0  0  0  0  0  0
   19.3205    0.3100    0.0000 C   0  0  0  0  0  0  0  0  0  0  0  0
   21.9186    0.8100    0.0000 C   0  0  0  0  0  0  0  0  0  0  0  0
    8.0622    0.8100    0.0000 C   0  0  0  0  0  0  0  0  0  0  0  0
    5.4641    0.3100    0.0000 C   0  0  0  0  0  0  0  0  0  0  0  0
   18.4545    0.8100    0.0000 C   0  0  0  0  0  0  0  0  0  0  0  0
   22.7846    0.3100    0.0000 C   0  0  0  0  0  0  0  0  0  0  0  0
    8.9282    0.3100    0.0000 C   0  0  0  0  0  0  0  0  0  0  0  0
    4.5981    0.8100    0.0000 C   0  0  0  0  0  0  0  0  0  0  0  0
   17.5885    0.3100    0.0000 C   0  0  0  0  0  0  0  0  0  0  0  0
   23.6506    0.8100    0.0000 C   0  0  0  0  0  0  0  0  0  0  0  0
    3.7321    0.3100    0.0000 C   0  0  0  0  0  0  0  0  0  0  0  0
    9.7942    0.8100    0.0000 C   0  0  0  0  0  0  0  0  0  0  0  0
   16.7224    0.8100    0.0000 C   0  0  0  0  0  0  0  0  0  0  0  0
   24.5167    0.3100    0.0000 C   0  0  0  0  0  0  0  0  0  0  0  0
    2.8660    0.8100    0.0000 C   0  0  0  0  0  0  0  0  0  0  0  0
   10.6603    0.3100    0.0000 C   0  0  0  0  0  0  0  0  0  0  0  0
   15.8564    0.3100    0.0000 C   0  0  0  0  0  0  0  0  0  0  0  0
   25.3827    0.8100    0.0000 C   0  0  0  0  0  0  0  0  0  0  0  0
    2.0000    0.3100    0.0000 C   0  0  0  0  0  0  0  0  0  0  0  0
   11.5263    0.8100    0.0000 C   0  0  0  0  0  0  0  0  0  0  0  0
   14.1244    0.3100    0.0000 C   0  0  3  0  0  0  0  0  0  0  0  0
   13.2583    0.8100    0.0000 C   0  0  0  0  0  0  0  0  0  0  0  0
   14.1244   -0.6900    0.0000 C   0  0  0  0  0  0  0  0  0  0  0  0
   20.5851    1.2850    0.0000 H   0  0  0  0  0  0  0  0  0  0  0  0
   19.7880    1.2850    0.0000 H   0  0  0  0  0  0  0  0  0  0  0  0
   20.6540   -0.1649    0.0000 H   0  0  0  0  0  0  0  0  0  0  0  0
   21.4511   -0.1649    0.0000 H   0  0  0  0  0  0  0  0  0  0  0  0
    6.7976   -0.1649    0.0000 H   0  0  0  0  0  0  0  0  0  0  0  0
    7.5947   -0.1649    0.0000 H   0  0  0  0  0  0  0  0  0  0  0  0
    6.7287    1.2850    0.0000 H   0  0  0  0  0  0  0  0  0  0  0  0
    5.9316    1.2850    0.0000 H   0  0  0  0  0  0  0  0  0  0  0  0
   18.9220   -0.1649    0.0000 H   0  0  0  0  0  0  0  0  0  0  0  0
   19.7190   -0.1649    0.0000 H   0  0  0  0  0  0  0  0  0  0  0  0
   22.3171    1.2850    0.0000 H   0  0  0  0  0  0  0  0  0  0  0  0
   21.5201    1.2850    0.0000 H   0  0  0  0  0  0  0  0  0  0  0  0
    8.4607    1.2850    0.0000 H   0  0  0  0  0  0  0  0  0  0  0  0
    7.6637    1.2850    0.0000 H   0  0  0  0  0  0  0  0  0  0  0  0
    5.0656   -0.1649    0.0000 H   0  0  0  0  0  0  0  0  0  0  0  0
    5.8626   -0.1649    0.0000 H   0  0  0  0  0  0  0  0  0  0  0  0
   18.8530    1.2850    0.0000 H   0  0  0  0  0  0  0  0  0  0  0  0
   18.0560    1.2850    0.0000 H   0  0  0  0  0  0  0  0  0  0  0  0
   22.3861   -0.1649    0.0000 H   0  0  0  0  0  0  0  0  0  0  0  0
   23.1831   -0.1649    0.0000 H   0  0  0  0  0  0  0  0  0  0  0  0
    8.5297   -0.1649    0.0000 H   0  0  0  0  0  0  0  0  0  0  0  0
    9.3267   -0.1649    0.0000 H   0  0  0  0  0  0  0  0  0  0  0  0
    4.9966    1.2850    0.0000 H   0  0  0  0  0  0  0  0  0  0  0  0
    4.1996    1.2850    0.0000 H   0  0  0  0  0  0  0  0  0  0  0  0
   17.1899   -0.1649    0.0000 H   0  0  0  0  0  0  0  0  0  0  0  0
   17.9870   -0.1649    0.0000 H   0  0  0  0  0  0  0  0  0  0  0  0
   24.0492    1.2850    0.0000 H   0  0  0  0  0  0  0  0  0  0  0  0
   23.2521    1.2850    0.0000 H   0  0  0  0  0  0  0  0  0  0  0  0
   10.1928    1.2850    0.0000 H   0  0  0  0  0  0  0  0  0  0  0  0
    9.3957    1.2850    0.0000 H   0  0  0  0  0  0  0  0  0  0  0  0
    3.3335   -0.1649    0.0000 H   0  0  0  0  0  0  0  0  0  0  0  0
    4.1306   -0.1649    0.0000 H   0  0  0  0  0  0  0  0  0  0  0  0
   17.1210    1.2850    0.0000 H   0  0  0  0  0  0  0  0  0  0  0  0
   16.3239    1.2850    0.0000 H   0  0  0  0  0  0  0  0  0  0  0  0
   24.1181   -0.1649    0.0000 H   0  0  0  0  0  0  0  0  0  0  0  0
   24.9152   -0.1649    0.0000 H   0  0  0  0  0  0  0  0  0  0  0  0
    3.2646    1.2850    0.0000 H   0  0  0  0  0  0  0  0  0  0  0  0
    2.4675    1.2850    0.0000 H   0  0  0  0  0  0  0  0  0  0  0  0
   10.2617   -0.1649    0.0000 H   0  0  0  0  0  0  0  0  0  0  0  0
   11.0588   -0.1649    0.0000 H   0  0  0  0  0  0  0  0  0  0  0  0
   25.6927    0.2731    0.0000 H   0  0  0  0  0  0  0  0  0  0  0  0
   25.9196    1.1200    0.0000 H   0  0  0  0  0  0  0  0  0  0  0  0
   25.0727    1.3469    0.0000 H   0  0  0  0  0  0  0  0  0  0  0  0
    1.6900    0.8469    0.0000 H   0  0  0  0  0  0  0  0  0  0  0  0
    1.4631    0.0000    0.0000 H   0  0  0  0  0  0  0  0  0  0  0  0
    2.3100   -0.2269    0.0000 H   0  0  0  0  0  0  0  0  0  0  0  0
   14.1244    0.9300    0.0000 H   0  0  0  0  0  0  0  0  0  0  0  0
   13.6569    1.2850    0.0000 H   0  0  0  0  0  0  0  0  0  0  0  0
   12.8598    1.2850    0.0000 H   0  0  0  0  0  0  0  0  0  0  0  0
   14.3364   -1.2726    0.0000 H   0  0  0  0  0  0  0  0  0  0  0  0
   14.7349   -0.5823    0.0000 H   0  0  0  0  0  0  0  0  0  0  0  0
   13.2583   -1.8100    0.0000 H   0  0  0  0  0  0  0  0  0  0  0  0
  1 26  1  0  0  0  0
  1 30  1  0  0  0  0
  2 29  1  0  0  0  0
  2 31  1  0  0  0  0
  3 26  2  0  0  0  0
  4 29  2  0  0  0  0
  5 32  1  0  0  0  0
  5 84  1  0  0  0  0
  6  7  1  0  0  0  0
  6 10  1  0  0  0  0
  6 33  1  0  0  0  0
  6 34  1  0  0  0  0
  7 11  1  0  0  0  0
  7 35  1  0  0  0  0
  7 36  1  0  0  0  0
  8  9  1  0  0  0  0
  8 12  1  0  0  0  0
  8 37  1  0  0  0  0
  8 38  1  0  0  0  0
  9 13  1  0  0  0  0
  9 39  1  0  0  0  0
  9 40  1  0  0  0  0
 10 14  1  0  0  0  0
 10 41  1  0  0  0  0
 10 42  1  0  0  0  0
 11 15  1  0  0  0  0
 11 43  1  0  0  0  0
 11 44  1  0  0  0  0
 12 16  1  0  0  0  0
 12 45  1  0  0  0  0
 12 46  1  0  0  0  0
 13 17  1  0  0  0  0
 13 47  1  0  0  0  0
 13 48  1  0  0  0  0
 14 18  1  0  0  0  0
 14 49  1  0  0  0  0
 14 50  1  0  0  0  0
 15 19  1  0  0  0  0
 15 51  1  0  0  0  0
 15 52  1  0  0  0  0
 16 21  1  0  0  0  0
 16 53  1  0  0  0  0
 16 54  1  0  0  0  0
 17 20  1  0  0  0  0
 17 55  1  0  0  0  0
 17 56  1  0  0  0  0
 18 22  1  0  0  0  0
 18 57  1  0  0  0  0
 18 58  1  0  0  0  0
 19 23  1  0  0  0  0
 19 59  1  0  0  0  0
 19 60  1  0  0  0  0
 20 24  1  0  0  0  0
 20 63  1  0  0  0  0
 20 64  1  0  0  0  0
 21 25  1  0  0  0  0
 21 61  1  0  0  0  0
 21 62  1  0  0  0  0
 22 26  1  0  0  0  0
 22 65  1  0  0  0  0
 22 66  1  0  0  0  0
 23 27  1  0  0  0  0
 23 67  1  0  0  0  0
 23 68  1  0  0  0  0
 24 28  1  0  0  0  0
 24 69  1  0  0  0  0
 24 70  1  0  0  0  0
 25 29  1  0  0  0  0
 25 71  1  0  0  0  0
 25 72  1  0  0  0  0
 27 73  1  0  0  0  0
 27 74  1  0  0  0  0
 27 75  1  0  0  0  0
 28 76  1  0  0  0  0
 28 77  1  0  0  0  0
 28 78  1  0  0  0  0
 30 31  1  0  0  0  0
 30 32  1  0  0  0  0
 30 79  1  0  0  0  0
 31 80  1  0  0  0  0
 31 81  1  0  0  0  0
 32 82  1  0  0  0  0
 32 83  1  0  0  0  0
M  END
> <PUBCHEM_COMPOUND_CID>
33979

> <PUBCHEM_COMPOUND_CANONICALIZED>
1

> <PUBCHEM_CACTVS_COMPLEXITY>
424

> <PUBCHEM_CACTVS_HBOND_ACCEPTOR>
5

> <PUBCHEM_CACTVS_HBOND_DONOR>
1

> <PUBCHEM_CACTVS_ROTATABLE_BOND>
26

> <PUBCHEM_CACTVS_SUBSKEYS>
AAADcfB4OAAAAAAAAAAAAAAAAAAAAAAAAAAAAAAAAAAAAAAAAAAAGgAACAAACBSggAICCAAABgAIAACQCAAAAAAAAAAAAAEAAAABEBIAAAACQAAFAAADAAGIyKCAAAAAAAAAAAAAAAAAAAAAAAAAAAAAAA==

> <PUBCHEM_IUPAC_OPENEYE_NAME>
(2-dodecanoyloxy-3-hydroxy-propyl) dodecanoate

> <PUBCHEM_IUPAC_CAS_NAME>
dodecanoic acid [3-hydroxy-2-(1-oxododecoxy)propyl] ester

> <PUBCHEM_IUPAC_NAME_MARKUP>
(2-dodecanoyloxy-3-hydroxypropyl) dodecanoate

> <PUBCHEM_IUPAC_NAME>
(2-dodecanoyloxy-3-hydroxypropyl) dodecanoate

> <PUBCHEM_IUPAC_SYSTEMATIC_NAME>
(2-dodecanoyloxy-3-oxidanyl-propyl) dodecanoate

> <PUBCHEM_IUPAC_TRADITIONAL_NAME>
lauric acid (3-hydroxy-2-lauroyloxy-propyl) ester

> <PUBCHEM_IUPAC_INCHI>
InChI=1S/C27H52O5/c1-3-5-7-9-11-13-15-17-19-21-26(29)31-24-25(23-28)32-27(30)22-20-18-16-14-12-10-8-6-4-2/h25,28H,3-24H2,1-2H3

> <PUBCHEM_IUPAC_INCHIKEY>
OQQOAWVKVDAJOI-UHFFFAOYSA-N

> <PUBCHEM_XLOGP3_AA>
9.7

> <PUBCHEM_EXACT_MASS>
456.38147475

> <PUBCHEM_MOLECULAR_FORMULA>
C27H52O5

> <PUBCHEM_MOLECULAR_WEIGHT>
456.7

> <PUBCHEM_SMILES>
CCCCCCCCCCCC(=O)OCC(CO)OC(=O)CCCCCCCCCCC

> <PUBCHEM_CONNECTIVITY_SMILES>
CCCCCCCCCCCC(=O)OCC(CO)OC(=O)CCCCCCCCCCC

> <PUBCHEM_CACTVS_TPSA>
72.8

> <PUBCHEM_MONOISOTOPIC_WEIGHT>
456.38147475

> <PUBCHEM_TOTAL_CHARGE>
0

> <PUBCHEM_HEAVY_ATOM_COUNT>
32

> <PUBCHEM_ATOM_DEF_STEREO_COUNT>
0

> <PUBCHEM_ATOM_UDEF_STEREO_COUNT>
1

> <PUBCHEM_BOND_DEF_STEREO_COUNT>
0

> <PUBCHEM_BOND_UDEF_STEREO_COUNT>
0

> <PUBCHEM_ISOTOPIC_ATOM_COUNT>
0

> <PUBCHEM_COMPONENT_COUNT>
1

> <PUBCHEM_CACTVS_TAUTO_COUNT>
-1

> <PUBCHEM_COORDINATE_TYPE>
1
5
255

> <PUBCHEM_BONDANNOTATIONS>
30  32  3

$$$$
