34072
  -OEChem-05122608202D

 22 21  0     1  0  0  0  0  0999 V2000
    2.0000   -0.0600    0.0000 O   0  0  0  0  0  0  0  0  0  0  0  0
    5.4641   -0.0600    0.0000 C   0  0  0  0  0  0  0  0  0  0  0  0
    4.5981    0.4400    0.0000 C   0  0  0  0  0  0  0  0  0  0  0  0
    3.7321   -0.0600    0.0000 C   0  0  3  0  0  0  0  0  0  0  0  0
    6.3301    0.4400    0.0000 C   0  0  0  0  0  0  0  0  0  0  0  0
    5.4641   -1.0600    0.0000 C   0  0  0  0  0  0  0  0  0  0  0  0
    3.7321   -1.0600    0.0000 C   0  0  0  0  0  0  0  0  0  0  0  0
    2.8660    0.4400    0.0000 C   0  0  0  0  0  0  0  0  0  0  0  0
    5.4641    0.5600    0.0000 H   0  0  0  0  0  0  0  0  0  0  0  0
    4.9966    0.9149    0.0000 H   0  0  0  0  0  0  0  0  0  0  0  0
    4.1996    0.9149    0.0000 H   0  0  0  0  0  0  0  0  0  0  0  0
    3.7321    0.5600    0.0000 H   0  0  0  0  0  0  0  0  0  0  0  0
    6.6401   -0.0969    0.0000 H   0  0  0  0  0  0  0  0  0  0  0  0
    6.8671    0.7500    0.0000 H   0  0  0  0  0  0  0  0  0  0  0  0
    6.0201    0.9769    0.0000 H   0  0  0  0  0  0  0  0  0  0  0  0
    4.8441   -1.0600    0.0000 H   0  0  0  0  0  0  0  0  0  0  0  0
    5.4641   -1.6800    0.0000 H   0  0  0  0  0  0  0  0  0  0  0  0
    6.0841   -1.0600    0.0000 H   0  0  0  0  0  0  0  0  0  0  0  0
    3.1121   -1.0600    0.0000 H   0  0  0  0  0  0  0  0  0  0  0  0
    3.7321   -1.6800    0.0000 H   0  0  0  0  0  0  0  0  0  0  0  0
    4.3521   -1.0600    0.0000 H   0  0  0  0  0  0  0  0  0  0  0  0
    2.8660    1.0600    0.0000 H   0  0  0  0  0  0  0  0  0  0  0  0
  1  8  2  0  0  0  0
  2  3  1  0  0  0  0
  2  5  1  0  0  0  0
  2  6  1  0  0  0  0
  2  9  1  0  0  0  0
  3  4  1  0  0  0  0
  3 10  1  0  0  0  0
  3 11  1  0  0  0  0
  4  7  1  0  0  0  0
  4  8  1  0  0  0  0
  4 12  1  0  0  0  0
  5 13  1  0  0  0  0
  5 14  1  0  0  0  0
  5 15  1  0  0  0  0
  6 16  1  0  0  0  0
  6 17  1  0  0  0  0
  6 18  1  0  0  0  0
  7 19  1  0  0  0  0
  7 20  1  0  0  0  0
  7 21  1  0  0  0  0
  8 22  1  0  0  0  0
M  END
> <PUBCHEM_COMPOUND_CID>
34072

> <PUBCHEM_COMPOUND_CANONICALIZED>
1

> <PUBCHEM_CACTVS_COMPLEXITY>
66.8

> <PUBCHEM_CACTVS_HBOND_ACCEPTOR>
1

> <PUBCHEM_CACTVS_HBOND_DONOR>
0

> <PUBCHEM_CACTVS_ROTATABLE_BOND>
3

> <PUBCHEM_CACTVS_SUBSKEYS>
AAADccBgIAAAAAAAAAAAAAAAAAAAAAAAAAAAAAAAAAAAAAAAAAAAGgAAAAAADQCggAICAAAAAAAIAAgQgAAAAAAAAAAAAAEAAAAAABIAAAAAAAAAAAAAAAAIAAAMAAAAAAAAAAAAAAAAAAAAAAAAAAAAAA==

> <PUBCHEM_IUPAC_OPENEYE_NAME>
2,4-dimethylpentanal

> <PUBCHEM_IUPAC_CAS_NAME>
2,4-dimethylpentanal

> <PUBCHEM_IUPAC_NAME_MARKUP>
2,4-dimethylpentanal

> <PUBCHEM_IUPAC_NAME>
2,4-dimethylpentanal

> <PUBCHEM_IUPAC_SYSTEMATIC_NAME>
2,4-dimethylpentanal

> <PUBCHEM_IUPAC_TRADITIONAL_NAME>
2,4-dimethylvaleraldehyde

> <PUBCHEM_IUPAC_INCHI>
InChI=1S/C7H14O/c1-6(2)4-7(3)5-8/h5-7H,4H2,1-3H3

> <PUBCHEM_IUPAC_INCHIKEY>
GPTMCJMLSOIYGU-UHFFFAOYSA-N

> <PUBCHEM_XLOGP3_AA>
1.9

> <PUBCHEM_EXACT_MASS>
114.104465066

> <PUBCHEM_MOLECULAR_FORMULA>
C7H14O

> <PUBCHEM_MOLECULAR_WEIGHT>
114.19

> <PUBCHEM_SMILES>
CC(C)CC(C)C=O

> <PUBCHEM_CONNECTIVITY_SMILES>
CC(C)CC(C)C=O

> <PUBCHEM_CACTVS_TPSA>
17.1

> <PUBCHEM_MONOISOTOPIC_WEIGHT>
114.104465066

> <PUBCHEM_TOTAL_CHARGE>
0

> <PUBCHEM_HEAVY_ATOM_COUNT>
8

> <PUBCHEM_ATOM_DEF_STEREO_COUNT>
0

> <PUBCHEM_ATOM_UDEF_STEREO_COUNT>
1

> <PUBCHEM_BOND_DEF_STEREO_COUNT>
0

> <PUBCHEM_BOND_UDEF_STEREO_COUNT>
0

> <PUBCHEM_ISOTOPIC_ATOM_COUNT>
0

> <PUBCHEM_COMPONENT_COUNT>
1

> <PUBCHEM_CACTVS_TAUTO_COUNT>
-1

> <PUBCHEM_COORDINATE_TYPE>
1
5
255

> <PUBCHEM_BONDANNOTATIONS>
4  7  3

$$$$
