34260
  -OEChem-05122609572D

 65 64  0     1  0  0  0  0  0999 V2000
    7.1962    0.0000    0.0000 O   0  0  0  0  0  0  0  0  0  0  0  0
   10.6603    0.0000    0.0000 O   0  0  0  0  0  0  0  0  0  0  0  0
    6.3301   -1.5000    0.0000 O   0  0  0  0  0  0  0  0  0  0  0  0
   11.5263    1.5000    0.0000 O   0  0  0  0  0  0  0  0  0  0  0  0
    8.9282    0.0000    0.0000 C   0  0  0  0  0  0  0  0  0  0  0  0
    8.0622   -0.5000    0.0000 C   0  0  0  0  0  0  0  0  0  0  0  0
    9.7942    0.5000    0.0000 C   0  0  0  0  0  0  0  0  0  0  0  0
    5.4641    0.0000    0.0000 C   0  0  3  0  0  0  0  0  0  0  0  0
   12.3923   -0.0000    0.0000 C   0  0  3  0  0  0  0  0  0  0  0  0
    8.4282    0.8660    0.0000 C   0  0  0  0  0  0  0  0  0  0  0  0
    9.4282   -0.8660    0.0000 C   0  0  0  0  0  0  0  0  0  0  0  0
    4.5981   -0.5000    0.0000 C   0  0  0  0  0  0  0  0  0  0  0  0
   13.2583    0.5000    0.0000 C   0  0  0  0  0  0  0  0  0  0  0  0
    5.4641    1.0000    0.0000 C   0  0  0  0  0  0  0  0  0  0  0  0
   12.3923   -1.0000    0.0000 C   0  0  0  0  0  0  0  0  0  0  0  0
    3.7321   -0.0000    0.0000 C   0  0  0  0  0  0  0  0  0  0  0  0
   14.1244   -0.0000    0.0000 C   0  0  0  0  0  0  0  0  0  0  0  0
    6.3301   -0.5000    0.0000 C   0  0  0  0  0  0  0  0  0  0  0  0
   11.5263    0.5000    0.0000 C   0  0  0  0  0  0  0  0  0  0  0  0
    2.8660   -0.5000    0.0000 C   0  0  0  0  0  0  0  0  0  0  0  0
   14.9904    0.5000    0.0000 C   0  0  0  0  0  0  0  0  0  0  0  0
    4.5981    1.5000    0.0000 C   0  0  0  0  0  0  0  0  0  0  0  0
   13.2583   -1.5000    0.0000 C   0  0  0  0  0  0  0  0  0  0  0  0
    2.0000   -0.0000    0.0000 C   0  0  0  0  0  0  0  0  0  0  0  0
   15.8564   -0.0000    0.0000 C   0  0  0  0  0  0  0  0  0  0  0  0
    7.6637   -0.9749    0.0000 H   0  0  0  0  0  0  0  0  0  0  0  0
    8.4607   -0.9749    0.0000 H   0  0  0  0  0  0  0  0  0  0  0  0
   10.1928    0.9749    0.0000 H   0  0  0  0  0  0  0  0  0  0  0  0
    9.3957    0.9749    0.0000 H   0  0  0  0  0  0  0  0  0  0  0  0
    5.4641   -0.6200    0.0000 H   0  0  0  0  0  0  0  0  0  0  0  0
   11.8554   -0.3100    0.0000 H   0  0  0  0  0  0  0  0  0  0  0  0
    8.9651    1.1760    0.0000 H   0  0  0  0  0  0  0  0  0  0  0  0
    8.1182    1.4030    0.0000 H   0  0  0  0  0  0  0  0  0  0  0  0
    7.8913    0.5560    0.0000 H   0  0  0  0  0  0  0  0  0  0  0  0
    8.8913   -1.1760    0.0000 H   0  0  0  0  0  0  0  0  0  0  0  0
    9.7382   -1.4030    0.0000 H   0  0  0  0  0  0  0  0  0  0  0  0
    9.9651   -0.5560    0.0000 H   0  0  0  0  0  0  0  0  0  0  0  0
    4.1996   -0.9749    0.0000 H   0  0  0  0  0  0  0  0  0  0  0  0
    4.9966   -0.9749    0.0000 H   0  0  0  0  0  0  0  0  0  0  0  0
   13.6569    0.9749    0.0000 H   0  0  0  0  0  0  0  0  0  0  0  0
   12.8598    0.9749    0.0000 H   0  0  0  0  0  0  0  0  0  0  0  0
    6.0747    0.8923    0.0000 H   0  0  0  0  0  0  0  0  0  0  0  0
    5.6762    1.5826    0.0000 H   0  0  0  0  0  0  0  0  0  0  0  0
   11.7817   -0.8923    0.0000 H   0  0  0  0  0  0  0  0  0  0  0  0
   12.1803   -1.5826    0.0000 H   0  0  0  0  0  0  0  0  0  0  0  0
    4.1306    0.4749    0.0000 H   0  0  0  0  0  0  0  0  0  0  0  0
    3.3335    0.4749    0.0000 H   0  0  0  0  0  0  0  0  0  0  0  0
   13.7258   -0.4749    0.0000 H   0  0  0  0  0  0  0  0  0  0  0  0
   14.5229   -0.4749    0.0000 H   0  0  0  0  0  0  0  0  0  0  0  0
    2.4675   -0.9749    0.0000 H   0  0  0  0  0  0  0  0  0  0  0  0
    3.2646   -0.9749    0.0000 H   0  0  0  0  0  0  0  0  0  0  0  0
   15.3889    0.9749    0.0000 H   0  0  0  0  0  0  0  0  0  0  0  0
   14.5919    0.9749    0.0000 H   0  0  0  0  0  0  0  0  0  0  0  0
    4.9081    2.0369    0.0000 H   0  0  0  0  0  0  0  0  0  0  0  0
    4.0611    1.8100    0.0000 H   0  0  0  0  0  0  0  0  0  0  0  0
    4.2881    0.9631    0.0000 H   0  0  0  0  0  0  0  0  0  0  0  0
   12.9483   -2.0369    0.0000 H   0  0  0  0  0  0  0  0  0  0  0  0
   13.7953   -1.8100    0.0000 H   0  0  0  0  0  0  0  0  0  0  0  0
   13.5683   -0.9631    0.0000 H   0  0  0  0  0  0  0  0  0  0  0  0
    2.3100    0.5369    0.0000 H   0  0  0  0  0  0  0  0  0  0  0  0
    1.4631    0.3100    0.0000 H   0  0  0  0  0  0  0  0  0  0  0  0
    1.6900   -0.5369    0.0000 H   0  0  0  0  0  0  0  0  0  0  0  0
   15.5464   -0.5369    0.0000 H   0  0  0  0  0  0  0  0  0  0  0  0
   16.3933   -0.3100    0.0000 H   0  0  0  0  0  0  0  0  0  0  0  0
   16.1664    0.5369    0.0000 H   0  0  0  0  0  0  0  0  0  0  0  0
  1  6  1  0  0  0  0
  1 18  1  0  0  0  0
  2  7  1  0  0  0  0
  2 19  1  0  0  0  0
  3 18  2  0  0  0  0
  4 19  2  0  0  0  0
  5  6  1  0  0  0  0
  5  7  1  0  0  0  0
  5 10  1  0  0  0  0
  5 11  1  0  0  0  0
  6 26  1  0  0  0  0
  6 27  1  0  0  0  0
  7 28  1  0  0  0  0
  7 29  1  0  0  0  0
  8 12  1  0  0  0  0
  8 14  1  0  0  0  0
  8 18  1  0  0  0  0
  8 30  1  0  0  0  0
  9 13  1  0  0  0  0
  9 15  1  0  0  0  0
  9 19  1  0  0  0  0
  9 31  1  0  0  0  0
 10 32  1  0  0  0  0
 10 33  1  0  0  0  0
 10 34  1  0  0  0  0
 11 35  1  0  0  0  0
 11 36  1  0  0  0  0
 11 37  1  0  0  0  0
 12 16  1  0  0  0  0
 12 38  1  0  0  0  0
 12 39  1  0  0  0  0
 13 17  1  0  0  0  0
 13 40  1  0  0  0  0
 13 41  1  0  0  0  0
 14 22  1  0  0  0  0
 14 42  1  0  0  0  0
 14 43  1  0  0  0  0
 15 23  1  0  0  0  0
 15 44  1  0  0  0  0
 15 45  1  0  0  0  0
 16 20  1  0  0  0  0
 16 46  1  0  0  0  0
 16 47  1  0  0  0  0
 17 21  1  0  0  0  0
 17 48  1  0  0  0  0
 17 49  1  0  0  0  0
 20 24  1  0  0  0  0
 20 50  1  0  0  0  0
 20 51  1  0  0  0  0
 21 25  1  0  0  0  0
 21 52  1  0  0  0  0
 21 53  1  0  0  0  0
 22 54  1  0  0  0  0
 22 55  1  0  0  0  0
 22 56  1  0  0  0  0
 23 57  1  0  0  0  0
 23 58  1  0  0  0  0
 23 59  1  0  0  0  0
 24 60  1  0  0  0  0
 24 61  1  0  0  0  0
 24 62  1  0  0  0  0
 25 63  1  0  0  0  0
 25 64  1  0  0  0  0
 25 65  1  0  0  0  0
M  END
> <PUBCHEM_COMPOUND_CID>
34260

> <PUBCHEM_COMPOUND_CANONICALIZED>
1

> <PUBCHEM_CACTVS_COMPLEXITY>
342

> <PUBCHEM_CACTVS_HBOND_ACCEPTOR>
4

> <PUBCHEM_CACTVS_HBOND_DONOR>
0

> <PUBCHEM_CACTVS_ROTATABLE_BOND>
16

> <PUBCHEM_CACTVS_SUBSKEYS>
AAADcfB4OAAAAAAAAAAAAAAAAAAAAAAAAAAAAAAAAAAAAAAAAAAAGgAAAAAADwCggAICCAAABAAIAACQCAAAAAAAAAAAAAEAAAAAABIAAAACAAAFAAAAAAGIyAAOAAAAAAAAAAAAAAAAAAAAAAAAAAAAAA==

> <PUBCHEM_IUPAC_OPENEYE_NAME>
[3-(2-ethylhexanoyloxy)-2,2-dimethyl-propyl] 2-ethylhexanoate

> <PUBCHEM_IUPAC_CAS_NAME>
2-ethylhexanoic acid [3-(2-ethyl-1-oxohexoxy)-2,2-dimethylpropyl] ester

> <PUBCHEM_IUPAC_NAME_MARKUP>
[3-(2-ethylhexanoyloxy)-2,2-dimethylpropyl] 2-ethylhexanoate

> <PUBCHEM_IUPAC_NAME>
[3-(2-ethylhexanoyloxy)-2,2-dimethylpropyl] 2-ethylhexanoate

> <PUBCHEM_IUPAC_SYSTEMATIC_NAME>
[3-(2-ethylhexanoyloxy)-2,2-dimethyl-propyl] 2-ethylhexanoate

> <PUBCHEM_IUPAC_TRADITIONAL_NAME>
2-ethylhexanoic acid [3-(2-ethylhexanoyloxy)-2,2-dimethyl-propyl] ester

> <PUBCHEM_IUPAC_INCHI>
InChI=1S/C21H40O4/c1-7-11-13-17(9-3)19(22)24-15-21(5,6)16-25-20(23)18(10-4)14-12-8-2/h17-18H,7-16H2,1-6H3

> <PUBCHEM_IUPAC_INCHIKEY>
GORMSINSWZJIKL-UHFFFAOYSA-N

> <PUBCHEM_XLOGP3_AA>
6.9

> <PUBCHEM_EXACT_MASS>
356.29265975

> <PUBCHEM_MOLECULAR_FORMULA>
C21H40O4

> <PUBCHEM_MOLECULAR_WEIGHT>
356.5

> <PUBCHEM_SMILES>
CCCCC(CC)C(=O)OCC(C)(C)COC(=O)C(CC)CCCC

> <PUBCHEM_CONNECTIVITY_SMILES>
CCCCC(CC)C(=O)OCC(C)(C)COC(=O)C(CC)CCCC

> <PUBCHEM_CACTVS_TPSA>
52.6

> <PUBCHEM_MONOISOTOPIC_WEIGHT>
356.29265975

> <PUBCHEM_TOTAL_CHARGE>
0

> <PUBCHEM_HEAVY_ATOM_COUNT>
25

> <PUBCHEM_ATOM_DEF_STEREO_COUNT>
0

> <PUBCHEM_ATOM_UDEF_STEREO_COUNT>
2

> <PUBCHEM_BOND_DEF_STEREO_COUNT>
0

> <PUBCHEM_BOND_UDEF_STEREO_COUNT>
0

> <PUBCHEM_ISOTOPIC_ATOM_COUNT>
0

> <PUBCHEM_COMPONENT_COUNT>
1

> <PUBCHEM_CACTVS_TAUTO_COUNT>
-1

> <PUBCHEM_COORDINATE_TYPE>
1
5
255

> <PUBCHEM_BONDANNOTATIONS>
8  14  3
9  15  3

$$$$
