34697
  -OEChem-05122608332D

 58 59  0     0  0  0  0  0  0999 V2000
    9.5000   -0.8481    0.0000 P   0  0  0  0  0  0  0  0  0  0  0  0
    9.0000    0.0179    0.0000 O   0  0  0  0  0  0  0  0  0  0  0  0
   10.3660   -0.3481    0.0000 O   0  0  0  0  0  0  0  0  0  0  0  0
    8.6340   -1.3481    0.0000 O   0  0  0  0  0  0  0  0  0  0  0  0
   10.0000   -1.7141    0.0000 O   0  0  0  0  0  0  0  0  0  0  0  0
    4.5000    2.6160    0.0000 C   0  0  0  0  0  0  0  0  0  0  0  0
    5.0000    1.7500    0.0000 C   0  0  0  0  0  0  0  0  0  0  0  0
    3.5000    2.6160    0.0000 C   0  0  0  0  0  0  0  0  0  0  0  0
    6.0000    1.7500    0.0000 C   0  0  0  0  0  0  0  0  0  0  0  0
    3.0000    3.4821    0.0000 C   0  0  0  0  0  0  0  0  0  0  0  0
    6.5000    0.8840    0.0000 C   0  0  0  0  0  0  0  0  0  0  0  0
    7.5000    0.8840    0.0000 C   0  0  0  0  0  0  0  0  0  0  0  0
    2.0000    3.4821    0.0000 C   0  0  0  0  0  0  0  0  0  0  0  0
    3.5000    4.3481    0.0000 C   0  0  0  0  0  0  0  0  0  0  0  0
    8.0000    0.0179    0.0000 C   0  0  0  0  0  0  0  0  0  0  0  0
   10.3660    0.6519    0.0000 C   0  0  0  0  0  0  0  0  0  0  0  0
    8.6340   -2.3481    0.0000 C   0  0  0  0  0  0  0  0  0  0  0  0
   11.2321    1.1519    0.0000 C   0  0  0  0  0  0  0  0  0  0  0  0
    7.7680   -2.8481    0.0000 C   0  0  0  0  0  0  0  0  0  0  0  0
    9.5000    1.1519    0.0000 C   0  0  0  0  0  0  0  0  0  0  0  0
    9.5000   -2.8481    0.0000 C   0  0  0  0  0  0  0  0  0  0  0  0
   11.2321    2.1519    0.0000 C   0  0  0  0  0  0  0  0  0  0  0  0
    7.7680   -3.8481    0.0000 C   0  0  0  0  0  0  0  0  0  0  0  0
    9.5000    2.1519    0.0000 C   0  0  0  0  0  0  0  0  0  0  0  0
    9.5000   -3.8481    0.0000 C   0  0  0  0  0  0  0  0  0  0  0  0
   10.3660    2.6519    0.0000 C   0  0  0  0  0  0  0  0  0  0  0  0
    8.6340   -4.3481    0.0000 C   0  0  0  0  0  0  0  0  0  0  0  0
    5.0826    2.8281    0.0000 H   0  0  0  0  0  0  0  0  0  0  0  0
    4.3923    3.2266    0.0000 H   0  0  0  0  0  0  0  0  0  0  0  0
    4.4174    1.5380    0.0000 H   0  0  0  0  0  0  0  0  0  0  0  0
    5.1077    1.1394    0.0000 H   0  0  0  0  0  0  0  0  0  0  0  0
    2.9174    2.4040    0.0000 H   0  0  0  0  0  0  0  0  0  0  0  0
    3.6077    2.0054    0.0000 H   0  0  0  0  0  0  0  0  0  0  0  0
    6.5826    1.9621    0.0000 H   0  0  0  0  0  0  0  0  0  0  0  0
    5.8923    2.3606    0.0000 H   0  0  0  0  0  0  0  0  0  0  0  0
    3.6200    3.4821    0.0000 H   0  0  0  0  0  0  0  0  0  0  0  0
    5.9174    0.6719    0.0000 H   0  0  0  0  0  0  0  0  0  0  0  0
    6.6077    0.2734    0.0000 H   0  0  0  0  0  0  0  0  0  0  0  0
    8.0826    1.0960    0.0000 H   0  0  0  0  0  0  0  0  0  0  0  0
    7.3923    1.4946    0.0000 H   0  0  0  0  0  0  0  0  0  0  0  0
    2.0000    4.1021    0.0000 H   0  0  0  0  0  0  0  0  0  0  0  0
    1.3800    3.4821    0.0000 H   0  0  0  0  0  0  0  0  0  0  0  0
    2.0000    2.8621    0.0000 H   0  0  0  0  0  0  0  0  0  0  0  0
    4.0369    4.0381    0.0000 H   0  0  0  0  0  0  0  0  0  0  0  0
    3.8100    4.8850    0.0000 H   0  0  0  0  0  0  0  0  0  0  0  0
    2.9631    4.6581    0.0000 H   0  0  0  0  0  0  0  0  0  0  0  0
    7.4174   -0.1941    0.0000 H   0  0  0  0  0  0  0  0  0  0  0  0
    8.1077   -0.5926    0.0000 H   0  0  0  0  0  0  0  0  0  0  0  0
   11.7690    0.8419    0.0000 H   0  0  0  0  0  0  0  0  0  0  0  0
    7.2310   -2.5381    0.0000 H   0  0  0  0  0  0  0  0  0  0  0  0
    8.9631    0.8419    0.0000 H   0  0  0  0  0  0  0  0  0  0  0  0
   10.0369   -2.5381    0.0000 H   0  0  0  0  0  0  0  0  0  0  0  0
   11.7690    2.4619    0.0000 H   0  0  0  0  0  0  0  0  0  0  0  0
    7.2310   -4.1581    0.0000 H   0  0  0  0  0  0  0  0  0  0  0  0
    8.9631    2.4619    0.0000 H   0  0  0  0  0  0  0  0  0  0  0  0
   10.0369   -4.1581    0.0000 H   0  0  0  0  0  0  0  0  0  0  0  0
   10.3660    3.2719    0.0000 H   0  0  0  0  0  0  0  0  0  0  0  0
    8.6340   -4.9681    0.0000 H   0  0  0  0  0  0  0  0  0  0  0  0
  1  2  1  0  0  0  0
  1  3  1  0  0  0  0
  1  4  1  0  0  0  0
  1  5  2  0  0  0  0
  2 15  1  0  0  0  0
  3 16  1  0  0  0  0
  4 17  1  0  0  0  0
  6  7  1  0  0  0  0
  6  8  1  0  0  0  0
  6 28  1  0  0  0  0
  6 29  1  0  0  0  0
  7  9  1  0  0  0  0
  7 30  1  0  0  0  0
  7 31  1  0  0  0  0
  8 10  1  0  0  0  0
  8 32  1  0  0  0  0
  8 33  1  0  0  0  0
  9 11  1  0  0  0  0
  9 34  1  0  0  0  0
  9 35  1  0  0  0  0
 10 13  1  0  0  0  0
 10 14  1  0  0  0  0
 10 36  1  0  0  0  0
 11 12  1  0  0  0  0
 11 37  1  0  0  0  0
 11 38  1  0  0  0  0
 12 15  1  0  0  0  0
 12 39  1  0  0  0  0
 12 40  1  0  0  0  0
 13 41  1  0  0  0  0
 13 42  1  0  0  0  0
 13 43  1  0  0  0  0
 14 44  1  0  0  0  0
 14 45  1  0  0  0  0
 14 46  1  0  0  0  0
 15 47  1  0  0  0  0
 15 48  1  0  0  0  0
 16 18  2  0  0  0  0
 16 20  1  0  0  0  0
 17 19  2  0  0  0  0
 17 21  1  0  0  0  0
 18 22  1  0  0  0  0
 18 49  1  0  0  0  0
 19 23  1  0  0  0  0
 19 50  1  0  0  0  0
 20 24  2  0  0  0  0
 20 51  1  0  0  0  0
 21 25  2  0  0  0  0
 21 52  1  0  0  0  0
 22 26  2  0  0  0  0
 22 53  1  0  0  0  0
 23 27  2  0  0  0  0
 23 54  1  0  0  0  0
 24 26  1  0  0  0  0
 24 55  1  0  0  0  0
 25 27  1  0  0  0  0
 25 56  1  0  0  0  0
 26 57  1  0  0  0  0
 27 58  1  0  0  0  0
M  END
> <PUBCHEM_COMPOUND_CID>
34697

> <PUBCHEM_COMPOUND_CANONICALIZED>
1

> <PUBCHEM_CACTVS_COMPLEXITY>
391

> <PUBCHEM_CACTVS_HBOND_ACCEPTOR>
4

> <PUBCHEM_CACTVS_HBOND_DONOR>
0

> <PUBCHEM_CACTVS_ROTATABLE_BOND>
13

> <PUBCHEM_CACTVS_SUBSKEYS>
AAADceB4OAIAAAAAAAAAAAAAAAAAAAAAAAAwYAAAAAAAAAABQAAAGgAAACAADQSgkAIyBoAAARCAQCBCAIACAAAgIAAIiAAGCIgIJiKAERKAMAAkwBEIiAeAwOAMAAAAAAAAAAAAAAAAAAAAAAAAAAAAAA==

> <PUBCHEM_IUPAC_OPENEYE_NAME>
8-methylnonyl diphenyl phosphate

> <PUBCHEM_IUPAC_CAS_NAME>
phosphoric acid 8-methylnonyl diphenyl ester

> <PUBCHEM_IUPAC_NAME_MARKUP>
8-methylnonyl diphenyl phosphate

> <PUBCHEM_IUPAC_NAME>
8-methylnonyl diphenyl phosphate

> <PUBCHEM_IUPAC_SYSTEMATIC_NAME>
8-methylnonyl diphenyl phosphate

> <PUBCHEM_IUPAC_TRADITIONAL_NAME>
phosphoric acid 8-methylnonyl diphenyl ester

> <PUBCHEM_IUPAC_INCHI>
InChI=1S/C22H31O4P/c1-20(2)14-8-4-3-5-13-19-24-27(23,25-21-15-9-6-10-16-21)26-22-17-11-7-12-18-22/h6-7,9-12,15-18,20H,3-5,8,13-14,19H2,1-2H3

> <PUBCHEM_IUPAC_INCHIKEY>
RYUJRXVZSJCHDZ-UHFFFAOYSA-N

> <PUBCHEM_XLOGP3_AA>
7.4

> <PUBCHEM_EXACT_MASS>
390.19599646

> <PUBCHEM_MOLECULAR_FORMULA>
C22H31O4P

> <PUBCHEM_MOLECULAR_WEIGHT>
390.5

> <PUBCHEM_SMILES>
CC(C)CCCCCCCOP(=O)(OC1=CC=CC=C1)OC2=CC=CC=C2

> <PUBCHEM_CONNECTIVITY_SMILES>
CC(C)CCCCCCCOP(=O)(OC1=CC=CC=C1)OC2=CC=CC=C2

> <PUBCHEM_CACTVS_TPSA>
44.8

> <PUBCHEM_MONOISOTOPIC_WEIGHT>
390.19599646

> <PUBCHEM_TOTAL_CHARGE>
0

> <PUBCHEM_HEAVY_ATOM_COUNT>
27

> <PUBCHEM_ATOM_DEF_STEREO_COUNT>
0

> <PUBCHEM_ATOM_UDEF_STEREO_COUNT>
0

> <PUBCHEM_BOND_DEF_STEREO_COUNT>
0

> <PUBCHEM_BOND_UDEF_STEREO_COUNT>
0

> <PUBCHEM_ISOTOPIC_ATOM_COUNT>
0

> <PUBCHEM_COMPONENT_COUNT>
1

> <PUBCHEM_CACTVS_TAUTO_COUNT>
-1

> <PUBCHEM_COORDINATE_TYPE>
1
5
255

> <PUBCHEM_BONDANNOTATIONS>
16  18  8
16  20  8
17  19  8
17  21  8
18  22  8
19  23  8
20  24  8
21  25  8
22  26  8
23  27  8
24  26  8
25  27  8

$$$$
