34704
  -OEChem-05122608252D

 35 34  0     0  0  0  0  0  0999 V2000
    3.4030   -0.5600    0.0000 O   0  0  0  0  0  0  0  0  0  0  0  0
    2.5369   -0.0600    0.0000 N   0  0  0  0  0  0  0  0  0  0  0  0
    7.7331   -0.0600    0.0000 C   0  0  0  0  0  0  0  0  0  0  0  0
    8.5991   -0.5600    0.0000 C   0  0  0  0  0  0  0  0  0  0  0  0
    6.8671   -0.5600    0.0000 C   0  0  0  0  0  0  0  0  0  0  0  0
    9.4651   -0.0600    0.0000 C   0  0  0  0  0  0  0  0  0  0  0  0
    6.0010   -0.0600    0.0000 C   0  0  0  0  0  0  0  0  0  0  0  0
   10.3312   -0.5600    0.0000 C   0  0  0  0  0  0  0  0  0  0  0  0
    5.1350   -0.5600    0.0000 C   0  0  0  0  0  0  0  0  0  0  0  0
   11.1972   -0.0600    0.0000 C   0  0  0  0  0  0  0  0  0  0  0  0
    4.2690   -0.0600    0.0000 C   0  0  0  0  0  0  0  0  0  0  0  0
   12.0632   -0.5600    0.0000 C   0  0  0  0  0  0  0  0  0  0  0  0
    8.1316    0.4149    0.0000 H   0  0  0  0  0  0  0  0  0  0  0  0
    7.3346    0.4149    0.0000 H   0  0  0  0  0  0  0  0  0  0  0  0
    8.2006   -1.0350    0.0000 H   0  0  0  0  0  0  0  0  0  0  0  0
    8.9976   -1.0350    0.0000 H   0  0  0  0  0  0  0  0  0  0  0  0
    6.4685   -1.0350    0.0000 H   0  0  0  0  0  0  0  0  0  0  0  0
    7.2656   -1.0350    0.0000 H   0  0  0  0  0  0  0  0  0  0  0  0
    9.8637    0.4149    0.0000 H   0  0  0  0  0  0  0  0  0  0  0  0
    9.0666    0.4149    0.0000 H   0  0  0  0  0  0  0  0  0  0  0  0
    6.3996    0.4149    0.0000 H   0  0  0  0  0  0  0  0  0  0  0  0
    5.6025    0.4149    0.0000 H   0  0  0  0  0  0  0  0  0  0  0  0
    9.9326   -1.0350    0.0000 H   0  0  0  0  0  0  0  0  0  0  0  0
   10.7297   -1.0350    0.0000 H   0  0  0  0  0  0  0  0  0  0  0  0
    4.7365   -1.0350    0.0000 H   0  0  0  0  0  0  0  0  0  0  0  0
    5.5335   -1.0350    0.0000 H   0  0  0  0  0  0  0  0  0  0  0  0
   11.5957    0.4149    0.0000 H   0  0  0  0  0  0  0  0  0  0  0  0
   10.7987    0.4149    0.0000 H   0  0  0  0  0  0  0  0  0  0  0  0
    4.6675    0.4149    0.0000 H   0  0  0  0  0  0  0  0  0  0  0  0
    3.8705    0.4149    0.0000 H   0  0  0  0  0  0  0  0  0  0  0  0
   11.7532   -1.0969    0.0000 H   0  0  0  0  0  0  0  0  0  0  0  0
   12.6002   -0.8700    0.0000 H   0  0  0  0  0  0  0  0  0  0  0  0
   12.3732   -0.0231    0.0000 H   0  0  0  0  0  0  0  0  0  0  0  0
    2.0000   -0.3700    0.0000 H   0  0  0  0  0  0  0  0  0  0  0  0
    2.5369    0.5600    0.0000 H   0  0  0  0  0  0  0  0  0  0  0  0
  1  2  1  0  0  0  0
  1 11  1  0  0  0  0
  2 34  1  0  0  0  0
  2 35  1  0  0  0  0
  3  4  1  0  0  0  0
  3  5  1  0  0  0  0
  3 13  1  0  0  0  0
  3 14  1  0  0  0  0
  4  6  1  0  0  0  0
  4 15  1  0  0  0  0
  4 16  1  0  0  0  0
  5  7  1  0  0  0  0
  5 17  1  0  0  0  0
  5 18  1  0  0  0  0
  6  8  1  0  0  0  0
  6 19  1  0  0  0  0
  6 20  1  0  0  0  0
  7  9  1  0  0  0  0
  7 21  1  0  0  0  0
  7 22  1  0  0  0  0
  8 10  1  0  0  0  0
  8 23  1  0  0  0  0
  8 24  1  0  0  0  0
  9 11  1  0  0  0  0
  9 25  1  0  0  0  0
  9 26  1  0  0  0  0
 10 12  1  0  0  0  0
 10 27  1  0  0  0  0
 10 28  1  0  0  0  0
 11 29  1  0  0  0  0
 11 30  1  0  0  0  0
 12 31  1  0  0  0  0
 12 32  1  0  0  0  0
 12 33  1  0  0  0  0
M  END
> <PUBCHEM_COMPOUND_CID>
34704

> <PUBCHEM_COMPOUND_CANONICALIZED>
1

> <PUBCHEM_CACTVS_COMPLEXITY>
76.2

> <PUBCHEM_CACTVS_HBOND_ACCEPTOR>
2

> <PUBCHEM_CACTVS_HBOND_DONOR>
1

> <PUBCHEM_CACTVS_ROTATABLE_BOND>
9

> <PUBCHEM_CACTVS_SUBSKEYS>
AAADceByIAAAAAAAAAAAAAAAAAAAAAAAAAAAAAAAAAAAAAAAAAAAGgAUAAAACACggAICAAAAAAAAAAAAAAAAAAAAAAAAAAAAAAAAAAIAAAAAAAAEAAAAAAGAwKAAAAAAAAAAAAAAAAAAAAAAAAAAAAAAAA==

> <PUBCHEM_IUPAC_OPENEYE_NAME>
O-decylhydroxylamine

> <PUBCHEM_IUPAC_CAS_NAME>
O-decylhydroxylamine

> <PUBCHEM_IUPAC_NAME_MARKUP>
<I>O</I>-decylhydroxylamine

> <PUBCHEM_IUPAC_NAME>
O-decylhydroxylamine

> <PUBCHEM_IUPAC_SYSTEMATIC_NAME>
O-decylhydroxylamine

> <PUBCHEM_IUPAC_TRADITIONAL_NAME>
O-decylhydroxylamine

> <PUBCHEM_IUPAC_INCHI>
InChI=1S/C10H23NO/c1-2-3-4-5-6-7-8-9-10-12-11/h2-11H2,1H3

> <PUBCHEM_IUPAC_INCHIKEY>
MQNAOOIFODUDES-UHFFFAOYSA-N

> <PUBCHEM_XLOGP3>
4.4

> <PUBCHEM_EXACT_MASS>
173.177964357

> <PUBCHEM_MOLECULAR_FORMULA>
C10H23NO

> <PUBCHEM_MOLECULAR_WEIGHT>
173.30

> <PUBCHEM_SMILES>
CCCCCCCCCCON

> <PUBCHEM_CONNECTIVITY_SMILES>
CCCCCCCCCCON

> <PUBCHEM_CACTVS_TPSA>
35.3

> <PUBCHEM_MONOISOTOPIC_WEIGHT>
173.177964357

> <PUBCHEM_TOTAL_CHARGE>
0

> <PUBCHEM_HEAVY_ATOM_COUNT>
12

> <PUBCHEM_ATOM_DEF_STEREO_COUNT>
0

> <PUBCHEM_ATOM_UDEF_STEREO_COUNT>
0

> <PUBCHEM_BOND_DEF_STEREO_COUNT>
0

> <PUBCHEM_BOND_UDEF_STEREO_COUNT>
0

> <PUBCHEM_ISOTOPIC_ATOM_COUNT>
0

> <PUBCHEM_COMPONENT_COUNT>
1

> <PUBCHEM_CACTVS_TAUTO_COUNT>
-1

> <PUBCHEM_COORDINATE_TYPE>
1
5
255

$$$$
