3474
  -OEChem-05122609412D

 43 45  0     1  0  0  0  0  0999 V2000
    2.0000   -4.6618    0.0000 Cl  0  0  0  0  0  0  0  0  0  0  0  0
    5.5301    1.3623    0.0000 O   0  0  0  0  0  0  0  0  0  0  0  0
    5.5301    3.3623    0.0000 O   0  0  0  0  0  0  0  0  0  0  0  0
    3.7981    4.3623    0.0000 O   0  0  0  0  0  0  0  0  0  0  0  0
    4.6641   -0.1377    0.0000 O   0  0  0  0  0  0  0  0  0  0  0  0
    5.5301   -1.6377    0.0000 N   0  0  0  0  0  0  0  0  0  0  0  0
    5.5301   -4.6377    0.0000 N   0  0  0  0  0  0  0  0  0  0  0  0
    5.5301   -2.6377    0.0000 C   0  0  0  0  0  0  0  0  0  0  0  0
    4.6641   -3.1377    0.0000 C   0  0  0  0  0  0  0  0  0  0  0  0
    6.3962   -1.1377    0.0000 C   0  0  0  0  0  0  0  0  0  0  0  0
    6.3962   -0.1377    0.0000 C   0  0  0  0  0  0  0  0  0  0  0  0
    4.6641   -4.1377    0.0000 C   0  0  0  0  0  0  0  0  0  0  0  0
    4.6641    2.8623    0.0000 C   0  0  3  0  0  0  0  0  0  0  0  0
    4.6641    1.8623    0.0000 C   0  0  0  0  0  0  0  0  0  0  0  0
    6.3962   -3.1377    0.0000 C   0  0  0  0  0  0  0  0  0  0  0  0
    3.7702   -2.6030    0.0000 C   0  0  0  0  0  0  0  0  0  0  0  0
    7.2622   -1.6377    0.0000 C   0  0  0  0  0  0  0  0  0  0  0  0
    5.5301    0.3623    0.0000 C   0  0  0  0  0  0  0  0  0  0  0  0
    7.2622    0.3623    0.0000 C   0  0  0  0  0  0  0  0  0  0  0  0
    3.7702   -4.6723    0.0000 C   0  0  0  0  0  0  0  0  0  0  0  0
    3.7981    3.3623    0.0000 C   0  0  0  0  0  0  0  0  0  0  0  0
    6.3962   -4.1377    0.0000 C   0  0  0  0  0  0  0  0  0  0  0  0
    2.8641   -3.1169    0.0000 C   0  0  0  0  0  0  0  0  0  0  0  0
    8.1282   -1.1377    0.0000 C   0  0  0  0  0  0  0  0  0  0  0  0
    8.1282   -0.1377    0.0000 C   0  0  0  0  0  0  0  0  0  0  0  0
    2.8641   -4.1585    0.0000 C   0  0  0  0  0  0  0  0  0  0  0  0
    4.9932   -1.3277    0.0000 H   0  0  0  0  0  0  0  0  0  0  0  0
    4.6641    3.4823    0.0000 H   0  0  0  0  0  0  0  0  0  0  0  0
    4.0535    1.9700    0.0000 H   0  0  0  0  0  0  0  0  0  0  0  0
    4.4521    1.2797    0.0000 H   0  0  0  0  0  0  0  0  0  0  0  0
    6.9331   -2.8277    0.0000 H   0  0  0  0  0  0  0  0  0  0  0  0
    3.7773   -1.9831    0.0000 H   0  0  0  0  0  0  0  0  0  0  0  0
    7.2622   -2.2577    0.0000 H   0  0  0  0  0  0  0  0  0  0  0  0
    7.2622    0.9823    0.0000 H   0  0  0  0  0  0  0  0  0  0  0  0
    3.7773   -5.2923    0.0000 H   0  0  0  0  0  0  0  0  0  0  0  0
    3.1875    3.4700    0.0000 H   0  0  0  0  0  0  0  0  0  0  0  0
    3.5860    2.7797    0.0000 H   0  0  0  0  0  0  0  0  0  0  0  0
    6.9331   -4.4477    0.0000 H   0  0  0  0  0  0  0  0  0  0  0  0
    2.3284   -2.8048    0.0000 H   0  0  0  0  0  0  0  0  0  0  0  0
    8.6651   -1.4477    0.0000 H   0  0  0  0  0  0  0  0  0  0  0  0
    8.6651    0.1723    0.0000 H   0  0  0  0  0  0  0  0  0  0  0  0
    5.5301    3.9823    0.0000 H   0  0  0  0  0  0  0  0  0  0  0  0
    3.2611    4.6723    0.0000 H   0  0  0  0  0  0  0  0  0  0  0  0
  1 26  1  0  0  0  0
  2 14  1  0  0  0  0
  2 18  1  0  0  0  0
  3 13  1  0  0  0  0
  3 42  1  0  0  0  0
  4 21  1  0  0  0  0
  4 43  1  0  0  0  0
  5 18  2  0  0  0  0
  6  8  1  0  0  0  0
  6 10  1  0  0  0  0
  6 27  1  0  0  0  0
  7 12  2  0  0  0  0
  7 22  1  0  0  0  0
  8  9  2  0  0  0  0
  8 15  1  0  0  0  0
  9 12  1  0  0  0  0
  9 16  1  0  0  0  0
 10 11  1  0  0  0  0
 10 17  2  0  0  0  0
 11 18  1  0  0  0  0
 11 19  2  0  0  0  0
 12 20  1  0  0  0  0
 13 14  1  0  0  0  0
 13 21  1  0  0  0  0
 13 28  1  0  0  0  0
 14 29  1  0  0  0  0
 14 30  1  0  0  0  0
 15 22  2  0  0  0  0
 15 31  1  0  0  0  0
 16 23  2  0  0  0  0
 16 32  1  0  0  0  0
 17 24  1  0  0  0  0
 17 33  1  0  0  0  0
 19 25  1  0  0  0  0
 19 34  1  0  0  0  0
 20 26  2  0  0  0  0
 20 35  1  0  0  0  0
 21 36  1  0  0  0  0
 21 37  1  0  0  0  0
 22 38  1  0  0  0  0
 23 26  1  0  0  0  0
 23 39  1  0  0  0  0
 24 25  2  0  0  0  0
 24 40  1  0  0  0  0
 25 41  1  0  0  0  0
M  END
> <PUBCHEM_COMPOUND_CID>
3474

> <PUBCHEM_COMPOUND_CANONICALIZED>
1

> <PUBCHEM_CACTVS_COMPLEXITY>
467

> <PUBCHEM_CACTVS_HBOND_ACCEPTOR>
6

> <PUBCHEM_CACTVS_HBOND_DONOR>
3

> <PUBCHEM_CACTVS_ROTATABLE_BOND>
7

> <PUBCHEM_CACTVS_SUBSKEYS>
AAADceB7OAAEAAAAAAAAAAAAAAAAAAAAAAA8YIAAAAAAAACx9AAAHgIQCAAADB7hniY8yPLIFgCoAzT3TACCgCA1ByAI2CE4btgJNvrB99mGdYhn0AHL6ceYyKCOBAAAAAICAAAIAAAABAQAAAAAAAAAAA==

> <PUBCHEM_IUPAC_OPENEYE_NAME>
2,3-dihydroxypropyl 2-[(7-chloro-4-quinolyl)amino]benzoate

> <PUBCHEM_IUPAC_CAS_NAME>
2-[(7-chloro-4-quinolinyl)amino]benzoic acid 2,3-dihydroxypropyl ester

> <PUBCHEM_IUPAC_NAME_MARKUP>
2,3-dihydroxypropyl 2-[(7-chloroquinolin-4-yl)amino]benzoate

> <PUBCHEM_IUPAC_NAME>
2,3-dihydroxypropyl 2-[(7-chloroquinolin-4-yl)amino]benzoate

> <PUBCHEM_IUPAC_SYSTEMATIC_NAME>
2,3-bis(oxidanyl)propyl 2-[(7-chloranylquinolin-4-yl)amino]benzoate

> <PUBCHEM_IUPAC_TRADITIONAL_NAME>
2-[(7-chloro-4-quinolyl)amino]benzoic acid glyceryl ester

> <PUBCHEM_IUPAC_INCHI>
InChI=1S/C19H17ClN2O4/c20-12-5-6-14-17(7-8-21-18(14)9-12)22-16-4-2-1-3-15(16)19(25)26-11-13(24)10-23/h1-9,13,23-24H,10-11H2,(H,21,22)

> <PUBCHEM_IUPAC_INCHIKEY>
GWOFUCIGLDBNKM-UHFFFAOYSA-N

> <PUBCHEM_XLOGP3_AA>
3.5

> <PUBCHEM_EXACT_MASS>
372.0876847

> <PUBCHEM_MOLECULAR_FORMULA>
C19H17ClN2O4

> <PUBCHEM_MOLECULAR_WEIGHT>
372.8

> <PUBCHEM_SMILES>
C1=CC=C(C(=C1)C(=O)OCC(CO)O)NC2=C3C=CC(=CC3=NC=C2)Cl

> <PUBCHEM_CONNECTIVITY_SMILES>
C1=CC=C(C(=C1)C(=O)OCC(CO)O)NC2=C3C=CC(=CC3=NC=C2)Cl

> <PUBCHEM_CACTVS_TPSA>
91.7

> <PUBCHEM_MONOISOTOPIC_WEIGHT>
372.0876847

> <PUBCHEM_TOTAL_CHARGE>
0

> <PUBCHEM_HEAVY_ATOM_COUNT>
26

> <PUBCHEM_ATOM_DEF_STEREO_COUNT>
0

> <PUBCHEM_ATOM_UDEF_STEREO_COUNT>
1

> <PUBCHEM_BOND_DEF_STEREO_COUNT>
0

> <PUBCHEM_BOND_UDEF_STEREO_COUNT>
0

> <PUBCHEM_ISOTOPIC_ATOM_COUNT>
0

> <PUBCHEM_COMPONENT_COUNT>
1

> <PUBCHEM_CACTVS_TAUTO_COUNT>
-1

> <PUBCHEM_COORDINATE_TYPE>
1
5
255

> <PUBCHEM_BONDANNOTATIONS>
10  11  8
10  17  8
11  19  8
12  20  8
15  22  8
16  23  8
17  24  8
19  25  8
20  26  8
23  26  8
24  25  8
13  3  3
7  12  8
7  22  8
8  15  8
8  9  8
9  12  8
9  16  8

$$$$
