3479589
  -OEChem-05122608542D

 53 54  0     1  0  0  0  0  0999 V2000
    3.7321   -7.0000    0.0000 Cl  0  0  0  0  0  0  0  0  0  0  0  0
    3.7321    7.0000    0.0000 Cl  0  0  0  0  0  0  0  0  0  0  0  0
    3.7321   -4.0000    0.0000 O   0  0  0  0  0  0  0  0  0  0  0  0
    3.7321    4.0000    0.0000 O   0  0  0  0  0  0  0  0  0  0  0  0
    2.0000   -6.0000    0.0000 O   0  0  0  0  0  0  0  0  0  0  0  0
    5.4641    6.0000    0.0000 O   0  0  0  0  0  0  0  0  0  0  0  0
    3.7321    0.0000    0.0000 C   0  0  0  0  0  0  0  0  0  0  0  0
    3.7321   -1.0000    0.0000 C   0  0  0  0  0  0  0  0  0  0  0  0
    3.7321    1.0000    0.0000 C   0  0  0  0  0  0  0  0  0  0  0  0
    4.7321    0.0000    0.0000 C   0  0  0  0  0  0  0  0  0  0  0  0
    2.7321    0.0000    0.0000 C   0  0  0  0  0  0  0  0  0  0  0  0
    4.5981   -1.5000    0.0000 C   0  0  0  0  0  0  0  0  0  0  0  0
    2.8660    1.5000    0.0000 C   0  0  0  0  0  0  0  0  0  0  0  0
    2.8660   -1.5000    0.0000 C   0  0  0  0  0  0  0  0  0  0  0  0
    4.5981    1.5000    0.0000 C   0  0  0  0  0  0  0  0  0  0  0  0
    4.5981   -2.5000    0.0000 C   0  0  0  0  0  0  0  0  0  0  0  0
    2.8660    2.5000    0.0000 C   0  0  0  0  0  0  0  0  0  0  0  0
    2.8660   -2.5000    0.0000 C   0  0  0  0  0  0  0  0  0  0  0  0
    4.5981    2.5000    0.0000 C   0  0  0  0  0  0  0  0  0  0  0  0
    3.7321   -3.0000    0.0000 C   0  0  0  0  0  0  0  0  0  0  0  0
    3.7321    3.0000    0.0000 C   0  0  0  0  0  0  0  0  0  0  0  0
    2.8660   -4.5000    0.0000 C   0  0  0  0  0  0  0  0  0  0  0  0
    4.5981    4.5000    0.0000 C   0  0  0  0  0  0  0  0  0  0  0  0
    2.8660   -5.5000    0.0000 C   0  0  3  0  0  0  0  0  0  0  0  0
    4.5981    5.5000    0.0000 C   0  0  3  0  0  0  0  0  0  0  0  0
    3.7321   -6.0000    0.0000 C   0  0  0  0  0  0  0  0  0  0  0  0
    3.7321    6.0000    0.0000 C   0  0  0  0  0  0  0  0  0  0  0  0
    4.7321   -0.6200    0.0000 H   0  0  0  0  0  0  0  0  0  0  0  0
    5.3521    0.0000    0.0000 H   0  0  0  0  0  0  0  0  0  0  0  0
    4.7321    0.6200    0.0000 H   0  0  0  0  0  0  0  0  0  0  0  0
    2.7321    0.6200    0.0000 H   0  0  0  0  0  0  0  0  0  0  0  0
    2.1121    0.0000    0.0000 H   0  0  0  0  0  0  0  0  0  0  0  0
    2.7321   -0.6200    0.0000 H   0  0  0  0  0  0  0  0  0  0  0  0
    5.1350   -1.1900    0.0000 H   0  0  0  0  0  0  0  0  0  0  0  0
    2.3291    1.1900    0.0000 H   0  0  0  0  0  0  0  0  0  0  0  0
    2.3291   -1.1900    0.0000 H   0  0  0  0  0  0  0  0  0  0  0  0
    5.1350    1.1900    0.0000 H   0  0  0  0  0  0  0  0  0  0  0  0
    5.1350   -2.8100    0.0000 H   0  0  0  0  0  0  0  0  0  0  0  0
    2.3291    2.8100    0.0000 H   0  0  0  0  0  0  0  0  0  0  0  0
    2.3291   -2.8100    0.0000 H   0  0  0  0  0  0  0  0  0  0  0  0
    5.1350    2.8100    0.0000 H   0  0  0  0  0  0  0  0  0  0  0  0
    2.6540   -3.9174    0.0000 H   0  0  0  0  0  0  0  0  0  0  0  0
    2.2554   -4.6077    0.0000 H   0  0  0  0  0  0  0  0  0  0  0  0
    4.8101    3.9174    0.0000 H   0  0  0  0  0  0  0  0  0  0  0  0
    5.2087    4.6077    0.0000 H   0  0  0  0  0  0  0  0  0  0  0  0
    2.8660   -6.1200    0.0000 H   0  0  0  0  0  0  0  0  0  0  0  0
    4.5981    6.1200    0.0000 H   0  0  0  0  0  0  0  0  0  0  0  0
    4.3426   -6.1077    0.0000 H   0  0  0  0  0  0  0  0  0  0  0  0
    3.9441   -5.4174    0.0000 H   0  0  0  0  0  0  0  0  0  0  0  0
    3.1215    6.1077    0.0000 H   0  0  0  0  0  0  0  0  0  0  0  0
    3.5200    5.4174    0.0000 H   0  0  0  0  0  0  0  0  0  0  0  0
    2.0000   -6.6200    0.0000 H   0  0  0  0  0  0  0  0  0  0  0  0
    5.4641    6.6200    0.0000 H   0  0  0  0  0  0  0  0  0  0  0  0
  1 26  1  0  0  0  0
  2 27  1  0  0  0  0
  3 20  1  0  0  0  0
  3 22  1  0  0  0  0
  4 21  1  0  0  0  0
  4 23  1  0  0  0  0
  5 24  1  0  0  0  0
  5 52  1  0  0  0  0
  6 25  1  0  0  0  0
  6 53  1  0  0  0  0
  7  8  1  0  0  0  0
  7  9  1  0  0  0  0
  7 10  1  0  0  0  0
  7 11  1  0  0  0  0
  8 12  2  0  0  0  0
  8 14  1  0  0  0  0
  9 13  2  0  0  0  0
  9 15  1  0  0  0  0
 10 28  1  0  0  0  0
 10 29  1  0  0  0  0
 10 30  1  0  0  0  0
 11 31  1  0  0  0  0
 11 32  1  0  0  0  0
 11 33  1  0  0  0  0
 12 16  1  0  0  0  0
 12 34  1  0  0  0  0
 13 17  1  0  0  0  0
 13 35  1  0  0  0  0
 14 18  2  0  0  0  0
 14 36  1  0  0  0  0
 15 19  2  0  0  0  0
 15 37  1  0  0  0  0
 16 20  2  0  0  0  0
 16 38  1  0  0  0  0
 17 21  2  0  0  0  0
 17 39  1  0  0  0  0
 18 20  1  0  0  0  0
 18 40  1  0  0  0  0
 19 21  1  0  0  0  0
 19 41  1  0  0  0  0
 22 24  1  0  0  0  0
 22 42  1  0  0  0  0
 22 43  1  0  0  0  0
 23 25  1  0  0  0  0
 23 44  1  0  0  0  0
 23 45  1  0  0  0  0
 24 26  1  0  0  0  0
 24 46  1  0  0  0  0
 25 27  1  0  0  0  0
 25 47  1  0  0  0  0
 26 48  1  0  0  0  0
 26 49  1  0  0  0  0
 27 50  1  0  0  0  0
 27 51  1  0  0  0  0
M  END
> <PUBCHEM_COMPOUND_CID>
3479589

> <PUBCHEM_COMPOUND_CANONICALIZED>
1

> <PUBCHEM_CACTVS_COMPLEXITY>
369

> <PUBCHEM_CACTVS_HBOND_ACCEPTOR>
4

> <PUBCHEM_CACTVS_HBOND_DONOR>
2

> <PUBCHEM_CACTVS_ROTATABLE_BOND>
10

> <PUBCHEM_CACTVS_SUBSKEYS>
AAADceB4OAAGAAAAAAAAAAAAAAAAAAAAAAAwYAAAAAAAAAABQAAAGgIACAAADhegmEIyBoAABgCAAiBCAAACCAAgIAAIiAAGC4gNNiKEMRqCOCCkwBELqAeAwPAPoAAAAAAAAABAAAAAAAAAAAAAAAAAAA==

> <PUBCHEM_IUPAC_OPENEYE_NAME>
1-chloro-3-[4-[1-[4-(3-chloro-2-hydroxy-propoxy)phenyl]-1-methyl-ethyl]phenoxy]propan-2-ol

> <PUBCHEM_IUPAC_CAS_NAME>
1-chloro-3-[4-[2-[4-(3-chloro-2-hydroxypropoxy)phenyl]propan-2-yl]phenoxy]-2-propanol

> <PUBCHEM_IUPAC_NAME_MARKUP>
1-chloro-3-[4-[2-[4-(3-chloro-2-hydroxypropoxy)phenyl]propan-2-yl]phenoxy]propan-2-ol

> <PUBCHEM_IUPAC_NAME>
1-chloro-3-[4-[2-[4-(3-chloro-2-hydroxypropoxy)phenyl]propan-2-yl]phenoxy]propan-2-ol

> <PUBCHEM_IUPAC_SYSTEMATIC_NAME>
1-chloranyl-3-[4-[2-[4-(3-chloranyl-2-oxidanyl-propoxy)phenyl]propan-2-yl]phenoxy]propan-2-ol

> <PUBCHEM_IUPAC_TRADITIONAL_NAME>
1-chloro-3-[4-[1-[4-(3-chloro-2-hydroxy-propoxy)phenyl]-1-methyl-ethyl]phenoxy]propan-2-ol

> <PUBCHEM_IUPAC_INCHI>
InChI=1S/C21H26Cl2O4/c1-21(2,15-3-7-19(8-4-15)26-13-17(24)11-22)16-5-9-20(10-6-16)27-14-18(25)12-23/h3-10,17-18,24-25H,11-14H2,1-2H3

> <PUBCHEM_IUPAC_INCHIKEY>
PTCFDJRJOGPUFE-UHFFFAOYSA-N

> <PUBCHEM_XLOGP3_AA>
4.6

> <PUBCHEM_EXACT_MASS>
412.1208147

> <PUBCHEM_MOLECULAR_FORMULA>
C21H26Cl2O4

> <PUBCHEM_MOLECULAR_WEIGHT>
413.3

> <PUBCHEM_SMILES>
CC(C)(C1=CC=C(C=C1)OCC(CCl)O)C2=CC=C(C=C2)OCC(CCl)O

> <PUBCHEM_CONNECTIVITY_SMILES>
CC(C)(C1=CC=C(C=C1)OCC(CCl)O)C2=CC=C(C=C2)OCC(CCl)O

> <PUBCHEM_CACTVS_TPSA>
58.9

> <PUBCHEM_MONOISOTOPIC_WEIGHT>
412.1208147

> <PUBCHEM_TOTAL_CHARGE>
0

> <PUBCHEM_HEAVY_ATOM_COUNT>
27

> <PUBCHEM_ATOM_DEF_STEREO_COUNT>
0

> <PUBCHEM_ATOM_UDEF_STEREO_COUNT>
2

> <PUBCHEM_BOND_DEF_STEREO_COUNT>
0

> <PUBCHEM_BOND_UDEF_STEREO_COUNT>
0

> <PUBCHEM_ISOTOPIC_ATOM_COUNT>
0

> <PUBCHEM_COMPONENT_COUNT>
1

> <PUBCHEM_CACTVS_TAUTO_COUNT>
-1

> <PUBCHEM_COORDINATE_TYPE>
1
5
255

> <PUBCHEM_BONDANNOTATIONS>
12  16  8
13  17  8
14  18  8
15  19  8
16  20  8
17  21  8
18  20  8
19  21  8
24  5  3
25  6  3
8  12  8
8  14  8
9  13  8
9  15  8

$$$$
