351031
  -OEChem-05122609552D

 28 30  0     1  0  0  0  0  0999 V2000
    4.5988   -1.5002    0.0000 O   0  0  0  0  0  0  0  0  0  0  0  0
    2.0000    0.0002    0.0000 O   0  0  0  0  0  0  0  0  0  0  0  0
    4.5986   -0.4998    0.0000 C   0  0  3  0  0  0  0  0  0  0  0  0
    3.7326   -0.9998    0.0000 C   0  0  3  0  0  0  0  0  0  0  0  0
    2.8665   -0.4998    0.0000 C   0  0  3  0  0  0  0  0  0  0  0  0
    2.8665    0.5002    0.0000 C   0  0  3  0  0  0  0  0  0  0  0  0
    4.5986    0.5002    0.0000 C   0  0  0  0  0  0  0  0  0  0  0  0
    3.7326    1.0002    0.0000 C   0  0  0  0  0  0  0  0  0  0  0  0
    5.4646    0.0002    0.0000 C   0  0  0  0  0  0  0  0  0  0  0  0
    2.8665    1.5002    0.0000 C   0  0  0  0  0  0  0  0  0  0  0  0
    6.3306   -0.4998    0.0000 C   0  0  0  0  0  0  0  0  0  0  0  0
    5.4646    1.0002    0.0000 C   0  0  0  0  0  0  0  0  0  0  0  0
    3.4225   -1.5367    0.0000 H   0  0  0  0  0  0  0  0  0  0  0  0
    2.5566   -1.0368    0.0000 H   0  0  0  0  0  0  0  0  0  0  0  0
    5.2092    0.3926    0.0000 H   0  0  0  0  0  0  0  0  0  0  0  0
    4.8106    1.0828    0.0000 H   0  0  0  0  0  0  0  0  0  0  0  0
    4.1311    1.4752    0.0000 H   0  0  0  0  0  0  0  0  0  0  0  0
    3.3340    1.4752    0.0000 H   0  0  0  0  0  0  0  0  0  0  0  0
    5.4646   -0.6198    0.0000 H   0  0  0  0  0  0  0  0  0  0  0  0
    3.4865    1.5002    0.0000 H   0  0  0  0  0  0  0  0  0  0  0  0
    2.8665    2.1202    0.0000 H   0  0  0  0  0  0  0  0  0  0  0  0
    2.2465    1.5002    0.0000 H   0  0  0  0  0  0  0  0  0  0  0  0
    6.0206   -1.0367    0.0000 H   0  0  0  0  0  0  0  0  0  0  0  0
    6.8676   -0.8098    0.0000 H   0  0  0  0  0  0  0  0  0  0  0  0
    6.6406    0.0372    0.0000 H   0  0  0  0  0  0  0  0  0  0  0  0
    6.0846    1.0002    0.0000 H   0  0  0  0  0  0  0  0  0  0  0  0
    5.4646    1.6202    0.0000 H   0  0  0  0  0  0  0  0  0  0  0  0
    4.8446    1.0002    0.0000 H   0  0  0  0  0  0  0  0  0  0  0  0
  1  3  1  0  0  0  0
  1  4  1  0  0  0  0
  2  5  1  0  0  0  0
  2  6  1  0  0  0  0
  3  4  1  0  0  0  0
  3  7  1  0  0  0  0
  3  9  1  0  0  0  0
  4  5  1  0  0  0  0
  4 13  1  0  0  0  0
  5  6  1  0  0  0  0
  5 14  1  0  0  0  0
  6  8  1  0  0  0  0
  6 10  1  0  0  0  0
  7  8  1  0  0  0  0
  7 15  1  0  0  0  0
  7 16  1  0  0  0  0
  8 17  1  0  0  0  0
  8 18  1  0  0  0  0
  9 11  1  0  0  0  0
  9 12  1  0  0  0  0
  9 19  1  0  0  0  0
 10 20  1  0  0  0  0
 10 21  1  0  0  0  0
 10 22  1  0  0  0  0
 11 23  1  0  0  0  0
 11 24  1  0  0  0  0
 11 25  1  0  0  0  0
 12 26  1  0  0  0  0
 12 27  1  0  0  0  0
 12 28  1  0  0  0  0
M  END
> <PUBCHEM_COMPOUND_CID>
351031

> <PUBCHEM_COMPOUND_CANONICALIZED>
1

> <PUBCHEM_CACTVS_COMPLEXITY>
238

> <PUBCHEM_CACTVS_HBOND_ACCEPTOR>
2

> <PUBCHEM_CACTVS_HBOND_DONOR>
0

> <PUBCHEM_CACTVS_ROTATABLE_BOND>
1

> <PUBCHEM_CACTVS_SUBSKEYS>
AAADceBwMAAAAAAAAAAAAAAAEiQAAAAAAAAwAAAABIkAAAAAAAAAGgAAAAAADVSggAICAAAABAAAAAAAAAAAAAAAAAAAAAAAAAABAAIAAAACAAAFAAACAAHA4PwOgAAAAAAAAADCAAIQABCAAAAAAAAAAA==

> <PUBCHEM_IUPAC_OPENEYE_NAME>
4-isopropyl-7-methyl-3,8-dioxatricyclo[5.1.0.02,4]octane

> <PUBCHEM_IUPAC_CAS_NAME>
4-methyl-7-propan-2-yl-3,8-dioxatricyclo[5.1.0.02,4]octane

> <PUBCHEM_IUPAC_NAME_MARKUP>
4-methyl-7-propan-2-yl-3,8-dioxatricyclo[5.1.0.0<SUP>2,4</SUP>]octane

> <PUBCHEM_IUPAC_NAME>
4-methyl-7-propan-2-yl-3,8-dioxatricyclo[5.1.0.02,4]octane

> <PUBCHEM_IUPAC_SYSTEMATIC_NAME>
4-methyl-7-propan-2-yl-3,8-dioxatricyclo[5.1.0.02,4]octane

> <PUBCHEM_IUPAC_TRADITIONAL_NAME>
4-isopropyl-7-methyl-3,8-dioxatricyclo[5.1.0.02,4]octane

> <PUBCHEM_IUPAC_INCHI>
InChI=1S/C10H16O2/c1-6(2)10-5-4-9(3)7(11-9)8(10)12-10/h6-8H,4-5H2,1-3H3

> <PUBCHEM_IUPAC_INCHIKEY>
LEZWCCRTFNBOBU-UHFFFAOYSA-N

> <PUBCHEM_XLOGP3_AA>
1.6

> <PUBCHEM_EXACT_MASS>
168.115029749

> <PUBCHEM_MOLECULAR_FORMULA>
C10H16O2

> <PUBCHEM_MOLECULAR_WEIGHT>
168.23

> <PUBCHEM_SMILES>
CC(C)C12CCC3(C(C1O2)O3)C

> <PUBCHEM_CONNECTIVITY_SMILES>
CC(C)C12CCC3(C(C1O2)O3)C

> <PUBCHEM_CACTVS_TPSA>
25.1

> <PUBCHEM_MONOISOTOPIC_WEIGHT>
168.115029749

> <PUBCHEM_TOTAL_CHARGE>
0

> <PUBCHEM_HEAVY_ATOM_COUNT>
12

> <PUBCHEM_ATOM_DEF_STEREO_COUNT>
0

> <PUBCHEM_ATOM_UDEF_STEREO_COUNT>
4

> <PUBCHEM_BOND_DEF_STEREO_COUNT>
0

> <PUBCHEM_BOND_UDEF_STEREO_COUNT>
0

> <PUBCHEM_ISOTOPIC_ATOM_COUNT>
0

> <PUBCHEM_COMPONENT_COUNT>
1

> <PUBCHEM_CACTVS_TAUTO_COUNT>
-1

> <PUBCHEM_COORDINATE_TYPE>
1
5
255

> <PUBCHEM_BONDANNOTATIONS>
4  1  3
5  2  3
3  9  3
6  10  3

$$$$
