351024
  -OEChem-05122608102D

 33 34  0     1  0  0  0  0  0999 V2000
    2.0000    4.6160    0.0000 O   0  0  0  0  0  0  0  0  0  0  0  0
    7.3301   -4.6160    0.0000 O   0  0  0  0  0  0  0  0  0  0  0  0
    3.3660    2.2500    0.0000 O   0  0  0  0  0  0  0  0  0  0  0  0
    5.9641   -2.2500    0.0000 O   0  0  0  0  0  0  0  0  0  0  0  0
    4.2321   -0.2500    0.0000 O   0  0  0  0  0  0  0  0  0  0  0  0
    2.5000    3.7500    0.0000 C   0  0  3  0  0  0  0  0  0  0  0  0
    6.8301   -3.7500    0.0000 C   0  0  3  0  0  0  0  0  0  0  0  0
    3.0000    4.6160    0.0000 C   0  0  0  0  0  0  0  0  0  0  0  0
    7.8301   -3.7500    0.0000 C   0  0  0  0  0  0  0  0  0  0  0  0
    2.5000    2.7500    0.0000 C   0  0  0  0  0  0  0  0  0  0  0  0
    5.9641   -3.2500    0.0000 C   0  0  0  0  0  0  0  0  0  0  0  0
    3.3660    1.2500    0.0000 C   0  0  0  0  0  0  0  0  0  0  0  0
    5.0981   -1.7500    0.0000 C   0  0  0  0  0  0  0  0  0  0  0  0
    4.2321    0.7500    0.0000 C   0  0  0  0  0  0  0  0  0  0  0  0
    5.0981   -0.7500    0.0000 C   0  0  0  0  0  0  0  0  0  0  0  0
    1.9011    3.5895    0.0000 H   0  0  0  0  0  0  0  0  0  0  0  0
    6.3917   -4.1884    0.0000 H   0  0  0  0  0  0  0  0  0  0  0  0
    3.5826    4.4040    0.0000 H   0  0  0  0  0  0  0  0  0  0  0  0
    3.1077    5.2266    0.0000 H   0  0  0  0  0  0  0  0  0  0  0  0
    8.4127   -3.9621    0.0000 H   0  0  0  0  0  0  0  0  0  0  0  0
    7.9378   -3.1394    0.0000 H   0  0  0  0  0  0  0  0  0  0  0  0
    1.8894    2.8577    0.0000 H   0  0  0  0  0  0  0  0  0  0  0  0
    2.2880    2.1674    0.0000 H   0  0  0  0  0  0  0  0  0  0  0  0
    5.3535   -3.1423    0.0000 H   0  0  0  0  0  0  0  0  0  0  0  0
    5.7521   -3.8326    0.0000 H   0  0  0  0  0  0  0  0  0  0  0  0
    2.7554    1.3577    0.0000 H   0  0  0  0  0  0  0  0  0  0  0  0
    3.1540    0.6674    0.0000 H   0  0  0  0  0  0  0  0  0  0  0  0
    4.4875   -1.6423    0.0000 H   0  0  0  0  0  0  0  0  0  0  0  0
    4.8860   -2.3326    0.0000 H   0  0  0  0  0  0  0  0  0  0  0  0
    4.8426    0.6423    0.0000 H   0  0  0  0  0  0  0  0  0  0  0  0
    4.4441    1.3326    0.0000 H   0  0  0  0  0  0  0  0  0  0  0  0
    5.7087   -0.8577    0.0000 H   0  0  0  0  0  0  0  0  0  0  0  0
    5.3101   -0.1674    0.0000 H   0  0  0  0  0  0  0  0  0  0  0  0
  1  6  1  0  0  0  0
  1  8  1  0  0  0  0
  2  7  1  0  0  0  0
  2  9  1  0  0  0  0
  3 10  1  0  0  0  0
  3 12  1  0  0  0  0
  4 11  1  0  0  0  0
  4 13  1  0  0  0  0
  5 14  1  0  0  0  0
  5 15  1  0  0  0  0
  6  8  1  0  0  0  0
  6 10  1  0  0  0  0
  6 16  1  0  0  0  0
  7  9  1  0  0  0  0
  7 11  1  0  0  0  0
  7 17  1  0  0  0  0
  8 18  1  0  0  0  0
  8 19  1  0  0  0  0
  9 20  1  0  0  0  0
  9 21  1  0  0  0  0
 10 22  1  0  0  0  0
 10 23  1  0  0  0  0
 11 24  1  0  0  0  0
 11 25  1  0  0  0  0
 12 14  1  0  0  0  0
 12 26  1  0  0  0  0
 12 27  1  0  0  0  0
 13 15  1  0  0  0  0
 13 28  1  0  0  0  0
 13 29  1  0  0  0  0
 14 30  1  0  0  0  0
 14 31  1  0  0  0  0
 15 32  1  0  0  0  0
 15 33  1  0  0  0  0
M  END
> <PUBCHEM_COMPOUND_CID>
351024

> <PUBCHEM_COMPOUND_CANONICALIZED>
1

> <PUBCHEM_CACTVS_COMPLEXITY>
157

> <PUBCHEM_CACTVS_HBOND_ACCEPTOR>
5

> <PUBCHEM_CACTVS_HBOND_DONOR>
0

> <PUBCHEM_CACTVS_ROTATABLE_BOND>
10

> <PUBCHEM_CACTVS_SUBSKEYS>
AAADceBwOAAAAAAAAAAAAAAAEiQAAAAAAAAAAAAAAAAAAAAAAAAAGgAAAAAACBSggAIAAAAABAAAAAAAAAAAAAAAAAAAAAAAAAABAAAAAAACAAABAAACAAAAAAAAAAAAAAAAAAAAAAAAAAAAAAAAAAAAAA==

> <PUBCHEM_IUPAC_OPENEYE_NAME>
2-[2-[2-(oxiran-2-ylmethoxy)ethoxy]ethoxymethyl]oxirane

> <PUBCHEM_IUPAC_CAS_NAME>
2-[2-[2-(2-oxiranylmethoxy)ethoxy]ethoxymethyl]oxirane

> <PUBCHEM_IUPAC_NAME_MARKUP>
2-[2-[2-(oxiran-2-ylmethoxy)ethoxy]ethoxymethyl]oxirane

> <PUBCHEM_IUPAC_NAME>
2-[2-[2-(oxiran-2-ylmethoxy)ethoxy]ethoxymethyl]oxirane

> <PUBCHEM_IUPAC_SYSTEMATIC_NAME>
2-[2-[2-(oxiran-2-ylmethoxy)ethoxy]ethoxymethyl]oxirane

> <PUBCHEM_IUPAC_TRADITIONAL_NAME>
2-[2-(2-glycidoxyethoxy)ethoxymethyl]oxirane

> <PUBCHEM_IUPAC_INCHI>
InChI=1S/C10H18O5/c1(3-12-5-9-7-14-9)11-2-4-13-6-10-8-15-10/h9-10H,1-8H2

> <PUBCHEM_IUPAC_INCHIKEY>
SEFYJVFBMNOLBK-UHFFFAOYSA-N

> <PUBCHEM_XLOGP3_AA>
-0.8

> <PUBCHEM_EXACT_MASS>
218.11542367

> <PUBCHEM_MOLECULAR_FORMULA>
C10H18O5

> <PUBCHEM_MOLECULAR_WEIGHT>
218.25

> <PUBCHEM_SMILES>
C1C(O1)COCCOCCOCC2CO2

> <PUBCHEM_CONNECTIVITY_SMILES>
C1C(O1)COCCOCCOCC2CO2

> <PUBCHEM_CACTVS_TPSA>
52.8

> <PUBCHEM_MONOISOTOPIC_WEIGHT>
218.11542367

> <PUBCHEM_TOTAL_CHARGE>
0

> <PUBCHEM_HEAVY_ATOM_COUNT>
15

> <PUBCHEM_ATOM_DEF_STEREO_COUNT>
0

> <PUBCHEM_ATOM_UDEF_STEREO_COUNT>
2

> <PUBCHEM_BOND_DEF_STEREO_COUNT>
0

> <PUBCHEM_BOND_UDEF_STEREO_COUNT>
0

> <PUBCHEM_ISOTOPIC_ATOM_COUNT>
0

> <PUBCHEM_COMPONENT_COUNT>
1

> <PUBCHEM_CACTVS_TAUTO_COUNT>
-1

> <PUBCHEM_COORDINATE_TYPE>
1
5
255

> <PUBCHEM_BONDANNOTATIONS>
6  10  3
7  11  3

$$$$
