3534526
  -OEChem-05122610002D

 76 81  0     1  0  0  0  0  0999 V2000
    7.3250   -1.7050    0.0000 O   0  0  0  0  0  0  0  0  0  0  0  0
    8.1340    0.8828    0.0000 O   0  0  0  0  0  0  0  0  0  0  0  0
    7.0462   -3.4650    0.0000 O   0  0  0  0  0  0  0  0  0  0  0  0
   11.6641    0.9070    0.0000 N   0  0  0  0  0  0  0  0  0  0  0  0
    4.6038   -1.1413    0.0000 N   0  0  0  0  0  0  0  0  0  0  0  0
    8.1340   -1.1172    0.0000 C   0  0  3  0  0  0  0  0  0  0  0  0
    9.0000   -0.6172    0.0000 C   0  0  0  0  0  0  0  0  0  0  0  0
    7.2679   -0.6172    0.0000 C   0  0  0  0  0  0  0  0  0  0  0  0
    8.9430   -1.7050    0.0000 C   0  0  0  0  0  0  0  0  0  0  0  0
    9.0000    0.3828    0.0000 C   0  0  0  0  0  0  0  0  0  0  0  0
    7.2679    0.3828    0.0000 C   0  0  0  0  0  0  0  0  0  0  0  0
    8.6340   -2.6560    0.0000 C   0  0  0  0  0  0  0  0  0  0  0  0
    9.8939   -1.1518    0.0000 C   0  0  0  0  0  0  0  0  0  0  0  0
    6.3740   -1.1518    0.0000 C   0  0  0  0  0  0  0  0  0  0  0  0
   10.8000    0.4036    0.0000 C   0  0  0  0  0  0  0  0  0  0  0  0
    7.6340   -2.6560    0.0000 C   0  0  0  0  0  0  0  0  0  0  0  0
    9.8939    0.9175    0.0000 C   0  0  0  0  0  0  0  0  0  0  0  0
    9.9385   -2.0115    0.0000 C   0  0  0  0  0  0  0  0  0  0  0  0
   10.8000   -0.6380    0.0000 C   0  0  0  0  0  0  0  0  0  0  0  0
    6.3740    0.9175    0.0000 C   0  0  0  0  0  0  0  0  0  0  0  0
    5.4679   -0.6380    0.0000 C   0  0  0  0  0  0  0  0  0  0  0  0
    5.4679    0.4036    0.0000 C   0  0  0  0  0  0  0  0  0  0  0  0
   11.6602    1.9070    0.0000 C   0  0  0  0  0  0  0  0  0  0  0  0
   12.5320    0.4103    0.0000 C   0  0  0  0  0  0  0  0  0  0  0  0
    8.8348   -3.6781    0.0000 C   0  0  0  0  0  0  0  0  0  0  0  0
   10.3076   -3.1227    0.0000 C   0  0  0  0  0  0  0  0  0  0  0  0
   12.5243    2.4103    0.0000 C   0  0  0  0  0  0  0  0  0  0  0  0
   13.3961    0.9137    0.0000 C   0  0  0  0  0  0  0  0  0  0  0  0
    9.6782   -3.9136    0.0000 C   0  0  0  0  0  0  0  0  0  0  0  0
    4.6038    0.9070    0.0000 C   0  0  0  0  0  0  0  0  0  0  0  0
   12.5205    3.4103    0.0000 C   0  0  0  0  0  0  0  0  0  0  0  0
   14.2641    0.4170    0.0000 C   0  0  0  0  0  0  0  0  0  0  0  0
    3.7359   -0.6447    0.0000 C   0  0  0  0  0  0  0  0  0  0  0  0
   13.3846    3.9136    0.0000 C   0  0  0  0  0  0  0  0  0  0  0  0
   15.1282    0.9203    0.0000 C   0  0  0  0  0  0  0  0  0  0  0  0
    3.7320    0.3553    0.0000 C   0  0  0  0  0  0  0  0  0  0  0  0
    2.8718   -1.1480    0.0000 C   0  0  0  0  0  0  0  0  0  0  0  0
    2.8641    0.8520    0.0000 C   0  0  0  0  0  0  0  0  0  0  0  0
    2.0039   -0.6513    0.0000 C   0  0  0  0  0  0  0  0  0  0  0  0
    2.0000    0.3487    0.0000 C   0  0  0  0  0  0  0  0  0  0  0  0
    9.8868   -1.7718    0.0000 H   0  0  0  0  0  0  0  0  0  0  0  0
    6.3812   -1.7718    0.0000 H   0  0  0  0  0  0  0  0  0  0  0  0
    9.8868    1.5375    0.0000 H   0  0  0  0  0  0  0  0  0  0  0  0
   10.3720   -1.5683    0.0000 H   0  0  0  0  0  0  0  0  0  0  0  0
   11.3357   -0.9501    0.0000 H   0  0  0  0  0  0  0  0  0  0  0  0
    6.3812    1.5375    0.0000 H   0  0  0  0  0  0  0  0  0  0  0  0
   11.4459    2.4888    0.0000 H   0  0  0  0  0  0  0  0  0  0  0  0
   11.0501    1.7970    0.0000 H   0  0  0  0  0  0  0  0  0  0  0  0
   12.1353   -0.0662    0.0000 H   0  0  0  0  0  0  0  0  0  0  0  0
   12.9324   -0.0631    0.0000 H   0  0  0  0  0  0  0  0  0  0  0  0
    8.3796   -4.0990    0.0000 H   0  0  0  0  0  0  0  0  0  0  0  0
   10.9181   -3.2310    0.0000 H   0  0  0  0  0  0  0  0  0  0  0  0
   12.7386    1.8285    0.0000 H   0  0  0  0  0  0  0  0  0  0  0  0
   13.1345    2.5203    0.0000 H   0  0  0  0  0  0  0  0  0  0  0  0
   13.7928    1.3901    0.0000 H   0  0  0  0  0  0  0  0  0  0  0  0
   12.9958    1.3871    0.0000 H   0  0  0  0  0  0  0  0  0  0  0  0
    9.8692   -4.5035    0.0000 H   0  0  0  0  0  0  0  0  0  0  0  0
    4.6062   -1.7613    0.0000 H   0  0  0  0  0  0  0  0  0  0  0  0
    4.9159    1.4427    0.0000 H   0  0  0  0  0  0  0  0  0  0  0  0
    4.0681    1.2191    0.0000 H   0  0  0  0  0  0  0  0  0  0  0  0
    4.2918    0.3712    0.0000 H   0  0  0  0  0  0  0  0  0  0  0  0
   12.3062    3.9921    0.0000 H   0  0  0  0  0  0  0  0  0  0  0  0
   11.9103    3.3003    0.0000 H   0  0  0  0  0  0  0  0  0  0  0  0
   13.8674   -0.0595    0.0000 H   0  0  0  0  0  0  0  0  0  0  0  0
   14.6644   -0.0564    0.0000 H   0  0  0  0  0  0  0  0  0  0  0  0
   13.6966    3.3779    0.0000 H   0  0  0  0  0  0  0  0  0  0  0  0
   13.9203    4.2257    0.0000 H   0  0  0  0  0  0  0  0  0  0  0  0
   13.0725    4.4494    0.0000 H   0  0  0  0  0  0  0  0  0  0  0  0
   15.4402    0.3846    0.0000 H   0  0  0  0  0  0  0  0  0  0  0  0
   15.6639    1.2324    0.0000 H   0  0  0  0  0  0  0  0  0  0  0  0
   14.8161    1.4561    0.0000 H   0  0  0  0  0  0  0  0  0  0  0  0
    4.2678    0.6674    0.0000 H   0  0  0  0  0  0  0  0  0  0  0  0
    2.8742   -1.7680    0.0000 H   0  0  0  0  0  0  0  0  0  0  0  0
    2.8617    1.4720    0.0000 H   0  0  0  0  0  0  0  0  0  0  0  0
    1.4681   -0.9634    0.0000 H   0  0  0  0  0  0  0  0  0  0  0  0
    1.4619    0.6566    0.0000 H   0  0  0  0  0  0  0  0  0  0  0  0
  1  6  1  0  0  0  0
  1 16  1  0  0  0  0
  2 10  1  0  0  0  0
  2 11  1  0  0  0  0
  3 16  2  0  0  0  0
  4 15  1  0  0  0  0
  4 23  1  0  0  0  0
  4 24  1  0  0  0  0
  5 21  1  0  0  0  0
  5 33  1  0  0  0  0
  5 58  1  0  0  0  0
  6  7  1  0  0  0  0
  6  8  1  0  0  0  0
  6  9  1  0  0  0  0
  7 10  2  0  0  0  0
  7 13  1  0  0  0  0
  8 11  2  0  0  0  0
  8 14  1  0  0  0  0
  9 12  1  0  0  0  0
  9 18  2  0  0  0  0
 10 17  1  0  0  0  0
 11 20  1  0  0  0  0
 12 16  1  0  0  0  0
 12 25  2  0  0  0  0
 13 19  2  0  0  0  0
 13 41  1  0  0  0  0
 14 21  2  0  0  0  0
 14 42  1  0  0  0  0
 15 17  2  0  0  0  0
 15 19  1  0  0  0  0
 17 43  1  0  0  0  0
 18 26  1  0  0  0  0
 18 44  1  0  0  0  0
 19 45  1  0  0  0  0
 20 22  2  0  0  0  0
 20 46  1  0  0  0  0
 21 22  1  0  0  0  0
 22 30  1  0  0  0  0
 23 27  1  0  0  0  0
 23 47  1  0  0  0  0
 23 48  1  0  0  0  0
 24 28  1  0  0  0  0
 24 49  1  0  0  0  0
 24 50  1  0  0  0  0
 25 29  1  0  0  0  0
 25 51  1  0  0  0  0
 26 29  2  0  0  0  0
 26 52  1  0  0  0  0
 27 31  1  0  0  0  0
 27 53  1  0  0  0  0
 27 54  1  0  0  0  0
 28 32  1  0  0  0  0
 28 55  1  0  0  0  0
 28 56  1  0  0  0  0
 29 57  1  0  0  0  0
 30 59  1  0  0  0  0
 30 60  1  0  0  0  0
 30 61  1  0  0  0  0
 31 34  1  0  0  0  0
 31 62  1  0  0  0  0
 31 63  1  0  0  0  0
 32 35  1  0  0  0  0
 32 64  1  0  0  0  0
 32 65  1  0  0  0  0
 33 36  2  0  0  0  0
 33 37  1  0  0  0  0
 34 66  1  0  0  0  0
 34 67  1  0  0  0  0
 34 68  1  0  0  0  0
 35 69  1  0  0  0  0
 35 70  1  0  0  0  0
 35 71  1  0  0  0  0
 36 38  1  0  0  0  0
 36 72  1  0  0  0  0
 37 39  2  0  0  0  0
 37 73  1  0  0  0  0
 38 40  2  0  0  0  0
 38 74  1  0  0  0  0
 39 40  1  0  0  0  0
 39 75  1  0  0  0  0
 40 76  1  0  0  0  0
M  END
> <PUBCHEM_COMPOUND_CID>
3534526

> <PUBCHEM_COMPOUND_CANONICALIZED>
1

> <PUBCHEM_CACTVS_COMPLEXITY>
836

> <PUBCHEM_CACTVS_HBOND_ACCEPTOR>
5

> <PUBCHEM_CACTVS_HBOND_DONOR>
1

> <PUBCHEM_CACTVS_ROTATABLE_BOND>
9

> <PUBCHEM_CACTVS_SUBSKEYS>
AAADcfB/MAAAAAAAAAAAAAAAAAAAASAAAAA0YMGCAAAAAEiRVAAAHgAQAAAADEzBmAQyzoPABACIAiTSSACCCAAlIgAIiAEObMgMJ3LEtZuGOSjn0BnI6Ye62POOyEABQgAaAACQgAKEADQAAAAAAAAAAA==

> <PUBCHEM_IUPAC_OPENEYE_NAME>
2'-anilino-6'-(dibutylamino)-3'-methyl-spiro[isobenzofuran-3,9'-xanthene]-1-one

> <PUBCHEM_IUPAC_CAS_NAME>
2'-anilino-6'-(dibutylamino)-3'-methyl-1-spiro[isobenzofuran-3,9'-xanthene]one

> <PUBCHEM_IUPAC_NAME_MARKUP>
2&apos;-anilino-6&apos;-(dibutylamino)-3&apos;-methylspiro[2-benzofuran-3,9&apos;-xanthene]-1-one

> <PUBCHEM_IUPAC_NAME>
2'-anilino-6'-(dibutylamino)-3'-methylspiro[2-benzofuran-3,9'-xanthene]-1-one

> <PUBCHEM_IUPAC_SYSTEMATIC_NAME>
6'-(dibutylamino)-3'-methyl-2'-phenylazanyl-spiro[2-benzofuran-3,9'-xanthene]-1-one

> <PUBCHEM_IUPAC_TRADITIONAL_NAME>
2'-anilino-6'-(dibutylamino)-3'-methyl-spiro[phthalan-3,9'-xanthene]-1-one

> <PUBCHEM_IUPAC_INCHI>
InChI=1S/C35H36N2O3/c1-4-6-19-37(20-7-5-2)26-17-18-29-33(22-26)39-32-21-24(3)31(36-25-13-9-8-10-14-25)23-30(32)35(29)28-16-12-11-15-27(28)34(38)40-35/h8-18,21-23,36H,4-7,19-20H2,1-3H3

> <PUBCHEM_IUPAC_INCHIKEY>
XAAILNNJDMIMON-UHFFFAOYSA-N

> <PUBCHEM_XLOGP3_AA>
8.7

> <PUBCHEM_EXACT_MASS>
532.27259301

> <PUBCHEM_MOLECULAR_FORMULA>
C35H36N2O3

> <PUBCHEM_MOLECULAR_WEIGHT>
532.7

> <PUBCHEM_SMILES>
CCCCN(CCCC)C1=CC2=C(C=C1)C3(C4=CC=CC=C4C(=O)O3)C5=C(O2)C=C(C(=C5)NC6=CC=CC=C6)C

> <PUBCHEM_CONNECTIVITY_SMILES>
CCCCN(CCCC)C1=CC2=C(C=C1)C3(C4=CC=CC=C4C(=O)O3)C5=C(O2)C=C(C(=C5)NC6=CC=CC=C6)C

> <PUBCHEM_CACTVS_TPSA>
50.8

> <PUBCHEM_MONOISOTOPIC_WEIGHT>
532.27259301

> <PUBCHEM_TOTAL_CHARGE>
0

> <PUBCHEM_HEAVY_ATOM_COUNT>
40

> <PUBCHEM_ATOM_DEF_STEREO_COUNT>
0

> <PUBCHEM_ATOM_UDEF_STEREO_COUNT>
1

> <PUBCHEM_BOND_DEF_STEREO_COUNT>
0

> <PUBCHEM_BOND_UDEF_STEREO_COUNT>
0

> <PUBCHEM_ISOTOPIC_ATOM_COUNT>
0

> <PUBCHEM_COMPONENT_COUNT>
1

> <PUBCHEM_CACTVS_TAUTO_COUNT>
-1

> <PUBCHEM_COORDINATE_TYPE>
1
5
255

> <PUBCHEM_BONDANNOTATIONS>
10  17  8
11  20  8
12  25  8
13  19  8
14  21  8
15  17  8
15  19  8
18  26  8
20  22  8
21  22  8
25  29  8
26  29  8
33  36  8
33  37  8
36  38  8
37  39  8
38  40  8
39  40  8
6  9  3
7  10  8
7  13  8
8  11  8
8  14  8
9  12  8
9  18  8

$$$$
