35363
  -OEChem-05122609512D

 27 27  0     1  0  0  0  0  0999 V2000
    3.7321    0.5670    0.0000 C   0  0  0  0  0  0  0  0  0  0  0  0
    2.8660    0.0670    0.0000 C   0  0  3  0  0  0  0  0  0  0  0  0
    4.5981    0.0670    0.0000 C   0  0  0  0  0  0  0  0  0  0  0  0
    2.8660   -0.9330    0.0000 C   0  0  0  0  0  0  0  0  0  0  0  0
    4.5981   -0.9330    0.0000 C   0  0  0  0  0  0  0  0  0  0  0  0
    3.7321   -1.4330    0.0000 C   0  0  0  0  0  0  0  0  0  0  0  0
    4.2321    1.4330    0.0000 C   0  0  0  0  0  0  0  0  0  0  0  0
    3.2321    1.4330    0.0000 C   0  0  0  0  0  0  0  0  0  0  0  0
    2.0000    0.5670    0.0000 C   0  0  0  0  0  0  0  0  0  0  0  0
    2.8660    0.6870    0.0000 H   0  0  0  0  0  0  0  0  0  0  0  0
    5.2087   -0.0407    0.0000 H   0  0  0  0  0  0  0  0  0  0  0  0
    4.8101    0.6496    0.0000 H   0  0  0  0  0  0  0  0  0  0  0  0
    2.2554   -0.8254    0.0000 H   0  0  0  0  0  0  0  0  0  0  0  0
    2.6540   -1.5156    0.0000 H   0  0  0  0  0  0  0  0  0  0  0  0
    4.8101   -1.5156    0.0000 H   0  0  0  0  0  0  0  0  0  0  0  0
    5.2087   -0.8254    0.0000 H   0  0  0  0  0  0  0  0  0  0  0  0
    3.3335   -1.9080    0.0000 H   0  0  0  0  0  0  0  0  0  0  0  0
    4.1306   -1.9080    0.0000 H   0  0  0  0  0  0  0  0  0  0  0  0
    4.7690    1.1230    0.0000 H   0  0  0  0  0  0  0  0  0  0  0  0
    4.5421    1.9700    0.0000 H   0  0  0  0  0  0  0  0  0  0  0  0
    3.6951    1.7430    0.0000 H   0  0  0  0  0  0  0  0  0  0  0  0
    3.7690    1.7430    0.0000 H   0  0  0  0  0  0  0  0  0  0  0  0
    2.9221    1.9700    0.0000 H   0  0  0  0  0  0  0  0  0  0  0  0
    2.6951    1.1230    0.0000 H   0  0  0  0  0  0  0  0  0  0  0  0
    2.3100    1.1039    0.0000 H   0  0  0  0  0  0  0  0  0  0  0  0
    1.4631    0.8770    0.0000 H   0  0  0  0  0  0  0  0  0  0  0  0
    1.6900    0.0301    0.0000 H   0  0  0  0  0  0  0  0  0  0  0  0
  1  2  1  0  0  0  0
  1  3  1  0  0  0  0
  1  7  1  0  0  0  0
  1  8  1  0  0  0  0
  2  4  1  0  0  0  0
  2  9  1  0  0  0  0
  2 10  1  0  0  0  0
  3  5  1  0  0  0  0
  3 11  1  0  0  0  0
  3 12  1  0  0  0  0
  4  6  1  0  0  0  0
  4 13  1  0  0  0  0
  4 14  1  0  0  0  0
  5  6  1  0  0  0  0
  5 15  1  0  0  0  0
  5 16  1  0  0  0  0
  6 17  1  0  0  0  0
  6 18  1  0  0  0  0
  7 19  1  0  0  0  0
  7 20  1  0  0  0  0
  7 21  1  0  0  0  0
  8 22  1  0  0  0  0
  8 23  1  0  0  0  0
  8 24  1  0  0  0  0
  9 25  1  0  0  0  0
  9 26  1  0  0  0  0
  9 27  1  0  0  0  0
M  END
> <PUBCHEM_COMPOUND_CID>
35363

> <PUBCHEM_COMPOUND_CANONICALIZED>
1

> <PUBCHEM_CACTVS_COMPLEXITY>
92.2

> <PUBCHEM_CACTVS_HBOND_ACCEPTOR>
0

> <PUBCHEM_CACTVS_HBOND_DONOR>
0

> <PUBCHEM_CACTVS_ROTATABLE_BOND>
0

> <PUBCHEM_CACTVS_SUBSKEYS>
AAADceBwAAAAAAAAAAAAAAAAAAAAAAAAAAAwAAAAAAAAAAAAAAAAGAAAAAAADwCAAAACAAAAAAAAAAAAAAAAAAAAAAAAAAAAAAAAAAIAAAAAAAAAAAAAAAEAgMAPgAAAAAAAAAAAAAAAACAAAAAAAAAAAA==

> <PUBCHEM_IUPAC_OPENEYE_NAME>
1,1,2-trimethylcyclohexane

> <PUBCHEM_IUPAC_CAS_NAME>
1,1,2-trimethylcyclohexane

> <PUBCHEM_IUPAC_NAME_MARKUP>
1,1,2-trimethylcyclohexane

> <PUBCHEM_IUPAC_NAME>
1,1,2-trimethylcyclohexane

> <PUBCHEM_IUPAC_SYSTEMATIC_NAME>
1,1,2-trimethylcyclohexane

> <PUBCHEM_IUPAC_TRADITIONAL_NAME>
1,1,2-trimethylcyclohexane

> <PUBCHEM_IUPAC_INCHI>
InChI=1S/C9H18/c1-8-6-4-5-7-9(8,2)3/h8H,4-7H2,1-3H3

> <PUBCHEM_IUPAC_INCHIKEY>
MEBONNVPKOBPEA-UHFFFAOYSA-N

> <PUBCHEM_XLOGP3_AA>
4.1

> <PUBCHEM_EXACT_MASS>
126.140850574

> <PUBCHEM_MOLECULAR_FORMULA>
C9H18

> <PUBCHEM_MOLECULAR_WEIGHT>
126.24

> <PUBCHEM_SMILES>
CC1CCCCC1(C)C

> <PUBCHEM_CONNECTIVITY_SMILES>
CC1CCCCC1(C)C

> <PUBCHEM_CACTVS_TPSA>
0

> <PUBCHEM_MONOISOTOPIC_WEIGHT>
126.140850574

> <PUBCHEM_TOTAL_CHARGE>
0

> <PUBCHEM_HEAVY_ATOM_COUNT>
9

> <PUBCHEM_ATOM_DEF_STEREO_COUNT>
0

> <PUBCHEM_ATOM_UDEF_STEREO_COUNT>
1

> <PUBCHEM_BOND_DEF_STEREO_COUNT>
0

> <PUBCHEM_BOND_UDEF_STEREO_COUNT>
0

> <PUBCHEM_ISOTOPIC_ATOM_COUNT>
0

> <PUBCHEM_COMPONENT_COUNT>
1

> <PUBCHEM_CACTVS_TAUTO_COUNT>
-1

> <PUBCHEM_COORDINATE_TYPE>
1
5
255

> <PUBCHEM_BONDANNOTATIONS>
2  9  3

$$$$
