36619
  -OEChem-05122608542D

 22 23  0     1  0  0  0  0  0999 V2000
    4.1881    0.5039    0.0000 C   0  0  3  0  0  0  0  0  0  0  0  0
    5.1328    0.8133    0.0000 C   0  0  0  0  0  0  0  0  0  0  0  0
    5.7204    0.0115    0.0000 C   0  0  0  0  0  0  0  0  0  0  0  0
    5.1408   -0.7961    0.0000 C   0  0  0  0  0  0  0  0  0  0  0  0
    4.1931   -0.4961    0.0000 C   0  0  0  0  0  0  0  0  0  0  0  0
    3.4032    1.1235    0.0000 C   0  0  0  0  0  0  0  0  0  0  0  0
    3.4144   -1.1235    0.0000 C   0  0  0  0  0  0  0  0  0  0  0  0
    2.4294    0.8961    0.0000 C   0  0  0  0  0  0  0  0  0  0  0  0
    2.4384   -0.9058    0.0000 C   0  0  0  0  0  0  0  0  0  0  0  0
    2.0000   -0.0070    0.0000 C   0  0  0  0  0  0  0  0  0  0  0  0
    4.2966    1.1143    0.0000 H   0  0  0  0  0  0  0  0  0  0  0  0
    5.6686    1.1252    0.0000 H   0  0  0  0  0  0  0  0  0  0  0  0
    4.8790    1.3790    0.0000 H   0  0  0  0  0  0  0  0  0  0  0  0
    6.1834   -0.4009    0.0000 H   0  0  0  0  0  0  0  0  0  0  0  0
    6.1792    0.4285    0.0000 H   0  0  0  0  0  0  0  0  0  0  0  0
    4.8926   -1.3643    0.0000 H   0  0  0  0  0  0  0  0  0  0  0  0
    5.6798   -1.1026    0.0000 H   0  0  0  0  0  0  0  0  0  0  0  0
    3.5381    1.7286    0.0000 H   0  0  0  0  0  0  0  0  0  0  0  0
    3.5554   -1.7272    0.0000 H   0  0  0  0  0  0  0  0  0  0  0  0
    2.0404    1.3789    0.0000 H   0  0  0  0  0  0  0  0  0  0  0  0
    2.0542   -1.3925    0.0000 H   0  0  0  0  0  0  0  0  0  0  0  0
    1.3800   -0.0101    0.0000 H   0  0  0  0  0  0  0  0  0  0  0  0
  1  2  1  0  0  0  0
  1  5  1  0  0  0  0
  1  6  1  0  0  0  0
  1 11  1  0  0  0  0
  2  3  1  0  0  0  0
  2 12  1  0  0  0  0
  2 13  1  0  0  0  0
  3  4  1  0  0  0  0
  3 14  1  0  0  0  0
  3 15  1  0  0  0  0
  4  5  1  0  0  0  0
  4 16  1  0  0  0  0
  4 17  1  0  0  0  0
  5  7  2  0  0  0  0
  6  8  2  0  0  0  0
  6 18  1  0  0  0  0
  7  9  1  0  0  0  0
  7 19  1  0  0  0  0
  8 10  1  0  0  0  0
  8 20  1  0  0  0  0
  9 10  2  0  0  0  0
  9 21  1  0  0  0  0
 10 22  1  0  0  0  0
M  END
> <PUBCHEM_COMPOUND_CID>
36619

> <PUBCHEM_COMPOUND_CANONICALIZED>
1

> <PUBCHEM_CACTVS_COMPLEXITY>
206

> <PUBCHEM_CACTVS_HBOND_ACCEPTOR>
0

> <PUBCHEM_CACTVS_HBOND_DONOR>
0

> <PUBCHEM_CACTVS_ROTATABLE_BOND>
0

> <PUBCHEM_CACTVS_SUBSKEYS>
AAADccBwAAAAAAAAAAAAAAAAAAAAAYAAAAAAAAAABAAAAACAAAAAGAAAAAAADQCAAAAAAAAAAACAAiBCAAAAAAAgAAAICAAAAAgIAAIAAQAAAAAAgAAIgAMAAAAOAAAAAAAAAAAAAAAAAAAAAAAAAAAAAA==

> <PUBCHEM_IUPAC_OPENEYE_NAME>
1,2,3,3a-tetrahydroazulene

> <PUBCHEM_IUPAC_CAS_NAME>
1,2,3,3a-tetrahydroazulene

> <PUBCHEM_IUPAC_NAME_MARKUP>
1,2,3,3<I>a</I>-tetrahydroazulene

> <PUBCHEM_IUPAC_NAME>
1,2,3,3a-tetrahydroazulene

> <PUBCHEM_IUPAC_SYSTEMATIC_NAME>
1,2,3,3a-tetrahydroazulene

> <PUBCHEM_IUPAC_TRADITIONAL_NAME>
1,2,3,3a-tetrahydroazulene

> <PUBCHEM_IUPAC_INCHI>
InChI=1S/C10H12/c1-2-5-9-7-4-8-10(9)6-3-1/h1-3,5-6,9H,4,7-8H2

> <PUBCHEM_IUPAC_INCHIKEY>
FJIPMVPOTCVXRR-UHFFFAOYSA-N

> <PUBCHEM_XLOGP3_AA>
3.1

> <PUBCHEM_EXACT_MASS>
132.093900383

> <PUBCHEM_MOLECULAR_FORMULA>
C10H12

> <PUBCHEM_MOLECULAR_WEIGHT>
132.20

> <PUBCHEM_SMILES>
C1CC2C=CC=CC=C2C1

> <PUBCHEM_CONNECTIVITY_SMILES>
C1CC2C=CC=CC=C2C1

> <PUBCHEM_CACTVS_TPSA>
0

> <PUBCHEM_MONOISOTOPIC_WEIGHT>
132.093900383

> <PUBCHEM_TOTAL_CHARGE>
0

> <PUBCHEM_HEAVY_ATOM_COUNT>
10

> <PUBCHEM_ATOM_DEF_STEREO_COUNT>
0

> <PUBCHEM_ATOM_UDEF_STEREO_COUNT>
1

> <PUBCHEM_BOND_DEF_STEREO_COUNT>
0

> <PUBCHEM_BOND_UDEF_STEREO_COUNT>
0

> <PUBCHEM_ISOTOPIC_ATOM_COUNT>
0

> <PUBCHEM_COMPONENT_COUNT>
1

> <PUBCHEM_CACTVS_TAUTO_COUNT>
-1

> <PUBCHEM_COORDINATE_TYPE>
1
5
255

> <PUBCHEM_BONDANNOTATIONS>
1  2  3

$$$$
