37109
  -OEChem-05122608452D

 19 19  0     1  0  0  0  0  0999 V2000
    3.7071    1.3906    0.0000 O   0  0  0  0  0  0  0  0  0  0  0  0
    3.0000   -0.3165    0.0000 C   0  0  3  0  0  0  0  0  0  0  0  0
    3.0000    0.6835    0.0000 C   0  0  3  0  0  0  0  0  0  0  0  0
    2.0000   -0.3165    0.0000 C   0  0  0  0  0  0  0  0  0  0  0  0
    2.0000    0.6835    0.0000 C   0  0  0  0  0  0  0  0  0  0  0  0
    3.7071   -1.0236    0.0000 C   0  0  0  0  0  0  0  0  0  0  0  0
    3.4483   -1.9895    0.0000 C   0  0  0  0  0  0  0  0  0  0  0  0
    3.5728   -0.0792    0.0000 H   0  0  0  0  0  0  0  0  0  0  0  0
    2.7627    1.2563    0.0000 H   0  0  0  0  0  0  0  0  0  0  0  0
    1.3800   -0.3165    0.0000 H   0  0  0  0  0  0  0  0  0  0  0  0
    2.0000   -0.9365    0.0000 H   0  0  0  0  0  0  0  0  0  0  0  0
    2.0000    1.3035    0.0000 H   0  0  0  0  0  0  0  0  0  0  0  0
    1.3800    0.6835    0.0000 H   0  0  0  0  0  0  0  0  0  0  0  0
    4.2690   -1.2856    0.0000 H   0  0  0  0  0  0  0  0  0  0  0  0
    4.0627   -0.5157    0.0000 H   0  0  0  0  0  0  0  0  0  0  0  0
    2.8494   -1.8290    0.0000 H   0  0  0  0  0  0  0  0  0  0  0  0
    3.2878   -2.5884    0.0000 H   0  0  0  0  0  0  0  0  0  0  0  0
    4.0472   -2.1500    0.0000 H   0  0  0  0  0  0  0  0  0  0  0  0
    3.5466    1.9895    0.0000 H   0  0  0  0  0  0  0  0  0  0  0  0
  1  3  1  0  0  0  0
  1 19  1  0  0  0  0
  2  3  1  0  0  0  0
  2  4  1  0  0  0  0
  2  6  1  0  0  0  0
  2  8  1  0  0  0  0
  3  5  1  0  0  0  0
  3  9  1  0  0  0  0
  4  5  1  0  0  0  0
  4 10  1  0  0  0  0
  4 11  1  0  0  0  0
  5 12  1  0  0  0  0
  5 13  1  0  0  0  0
  6  7  1  0  0  0  0
  6 14  1  0  0  0  0
  6 15  1  0  0  0  0
  7 16  1  0  0  0  0
  7 17  1  0  0  0  0
  7 18  1  0  0  0  0
M  END
> <PUBCHEM_COMPOUND_CID>
37109

> <PUBCHEM_COMPOUND_CANONICALIZED>
1

> <PUBCHEM_CACTVS_COMPLEXITY>
61.2

> <PUBCHEM_CACTVS_HBOND_ACCEPTOR>
1

> <PUBCHEM_CACTVS_HBOND_DONOR>
1

> <PUBCHEM_CACTVS_ROTATABLE_BOND>
1

> <PUBCHEM_CACTVS_SUBSKEYS>
AAADccBgIAAAAAAAAAAAAAAAAABgAAAAAAAAAAAAAAAAAAAAAAAAGgAACAAADRSggAICAAAAAgAAAAAAAAAAAAAAAAAAAAAAAAAAEAIAAAAAQAAEAAAAAAGAQAAKAAAAAAAAAAAAAAAAAAAAAAAAAAAAAA==

> <PUBCHEM_IUPAC_OPENEYE_NAME>
2-ethylcyclobutanol

> <PUBCHEM_IUPAC_CAS_NAME>
2-ethyl-1-cyclobutanol

> <PUBCHEM_IUPAC_NAME_MARKUP>
2-ethylcyclobutan-1-ol

> <PUBCHEM_IUPAC_NAME>
2-ethylcyclobutan-1-ol

> <PUBCHEM_IUPAC_SYSTEMATIC_NAME>
2-ethylcyclobutan-1-ol

> <PUBCHEM_IUPAC_TRADITIONAL_NAME>
2-ethylcyclobutanol

> <PUBCHEM_IUPAC_INCHI>
InChI=1S/C6H12O/c1-2-5-3-4-6(5)7/h5-7H,2-4H2,1H3

> <PUBCHEM_IUPAC_INCHIKEY>
JBHZDUFZWBLFID-UHFFFAOYSA-N

> <PUBCHEM_XLOGP3_AA>
1.2

> <PUBCHEM_EXACT_MASS>
100.088815002

> <PUBCHEM_MOLECULAR_FORMULA>
C6H12O

> <PUBCHEM_MOLECULAR_WEIGHT>
100.16

> <PUBCHEM_SMILES>
CCC1CCC1O

> <PUBCHEM_CONNECTIVITY_SMILES>
CCC1CCC1O

> <PUBCHEM_CACTVS_TPSA>
20.2

> <PUBCHEM_MONOISOTOPIC_WEIGHT>
100.088815002

> <PUBCHEM_TOTAL_CHARGE>
0

> <PUBCHEM_HEAVY_ATOM_COUNT>
7

> <PUBCHEM_ATOM_DEF_STEREO_COUNT>
0

> <PUBCHEM_ATOM_UDEF_STEREO_COUNT>
2

> <PUBCHEM_BOND_DEF_STEREO_COUNT>
0

> <PUBCHEM_BOND_UDEF_STEREO_COUNT>
0

> <PUBCHEM_ISOTOPIC_ATOM_COUNT>
0

> <PUBCHEM_COMPONENT_COUNT>
1

> <PUBCHEM_CACTVS_TAUTO_COUNT>
-1

> <PUBCHEM_COORDINATE_TYPE>
1
5
255

> <PUBCHEM_BONDANNOTATIONS>
3  1  3
2  6  3

$$$$
