37509
  -OEChem-05122609192D

 23 22  0     0  0  0  0  0  0999 V2000
    3.7320   -0.8170    0.0000 O   0  0  0  0  0  0  0  0  0  0  0  0
    5.4641    1.1830    0.0000 O   0  0  0  0  0  0  0  0  0  0  0  0
    4.5981   -0.3170    0.0000 C   0  0  0  0  0  0  0  0  0  0  0  0
    4.0981    0.5490    0.0000 C   0  0  0  0  0  0  0  0  0  0  0  0
    5.0981   -1.1830    0.0000 C   0  0  0  0  0  0  0  0  0  0  0  0
    5.4641    0.1830    0.0000 C   0  0  0  0  0  0  0  0  0  0  0  0
    2.8660   -0.3170    0.0000 C   0  0  0  0  0  0  0  0  0  0  0  0
    6.3301   -0.3170    0.0000 C   0  0  0  0  0  0  0  0  0  0  0  0
    2.0000   -0.8170    0.0000 C   0  0  0  0  0  0  0  0  0  0  0  0
    4.6350    0.8590    0.0000 H   0  0  0  0  0  0  0  0  0  0  0  0
    3.7881    1.0860    0.0000 H   0  0  0  0  0  0  0  0  0  0  0  0
    3.5611    0.2390    0.0000 H   0  0  0  0  0  0  0  0  0  0  0  0
    4.5611   -1.4930    0.0000 H   0  0  0  0  0  0  0  0  0  0  0  0
    5.4081   -1.7200    0.0000 H   0  0  0  0  0  0  0  0  0  0  0  0
    5.6350   -0.8730    0.0000 H   0  0  0  0  0  0  0  0  0  0  0  0
    3.2646    0.1580    0.0000 H   0  0  0  0  0  0  0  0  0  0  0  0
    2.4675    0.1580    0.0000 H   0  0  0  0  0  0  0  0  0  0  0  0
    6.0201   -0.8539    0.0000 H   0  0  0  0  0  0  0  0  0  0  0  0
    6.8671   -0.6270    0.0000 H   0  0  0  0  0  0  0  0  0  0  0  0
    6.6401    0.2199    0.0000 H   0  0  0  0  0  0  0  0  0  0  0  0
    1.6900   -0.2801    0.0000 H   0  0  0  0  0  0  0  0  0  0  0  0
    1.4631   -1.1270    0.0000 H   0  0  0  0  0  0  0  0  0  0  0  0
    2.3100   -1.3539    0.0000 H   0  0  0  0  0  0  0  0  0  0  0  0
  1  3  1  0  0  0  0
  1  7  1  0  0  0  0
  2  6  2  0  0  0  0
  3  4  1  0  0  0  0
  3  5  1  0  0  0  0
  3  6  1  0  0  0  0
  4 10  1  0  0  0  0
  4 11  1  0  0  0  0
  4 12  1  0  0  0  0
  5 13  1  0  0  0  0
  5 14  1  0  0  0  0
  5 15  1  0  0  0  0
  6  8  1  0  0  0  0
  7  9  1  0  0  0  0
  7 16  1  0  0  0  0
  7 17  1  0  0  0  0
  8 18  1  0  0  0  0
  8 19  1  0  0  0  0
  8 20  1  0  0  0  0
  9 21  1  0  0  0  0
  9 22  1  0  0  0  0
  9 23  1  0  0  0  0
M  END
> <PUBCHEM_COMPOUND_CID>
37509

> <PUBCHEM_COMPOUND_CANONICALIZED>
1

> <PUBCHEM_CACTVS_COMPLEXITY>
105

> <PUBCHEM_CACTVS_HBOND_ACCEPTOR>
2

> <PUBCHEM_CACTVS_HBOND_DONOR>
0

> <PUBCHEM_CACTVS_ROTATABLE_BOND>
3

> <PUBCHEM_CACTVS_SUBSKEYS>
AAADccBgMAAAAAAAAAAAAAAAAAAAAAAAAAAAAAAAAAAAAAAAAAAAGgAAAAAADESggAICAAAABAAIAIAQAAIAAAAAAAAAAAFAAAAAAAAAAAQCAAAAAAAAAAAAAAAIAAAAAAAAAAAAAAAAAAAAAAAAAAAAAA==

> <PUBCHEM_IUPAC_OPENEYE_NAME>
3-ethoxy-3-methyl-butan-2-one

> <PUBCHEM_IUPAC_CAS_NAME>
3-ethoxy-3-methyl-2-butanone

> <PUBCHEM_IUPAC_NAME_MARKUP>
3-ethoxy-3-methylbutan-2-one

> <PUBCHEM_IUPAC_NAME>
3-ethoxy-3-methylbutan-2-one

> <PUBCHEM_IUPAC_SYSTEMATIC_NAME>
3-ethoxy-3-methyl-butan-2-one

> <PUBCHEM_IUPAC_TRADITIONAL_NAME>
3-ethoxy-3-methyl-butan-2-one

> <PUBCHEM_IUPAC_INCHI>
InChI=1S/C7H14O2/c1-5-9-7(3,4)6(2)8/h5H2,1-4H3

> <PUBCHEM_IUPAC_INCHIKEY>
CCFVIXLUALAAQN-UHFFFAOYSA-N

> <PUBCHEM_XLOGP3_AA>
0.8

> <PUBCHEM_EXACT_MASS>
130.099379685

> <PUBCHEM_MOLECULAR_FORMULA>
C7H14O2

> <PUBCHEM_MOLECULAR_WEIGHT>
130.18

> <PUBCHEM_SMILES>
CCOC(C)(C)C(=O)C

> <PUBCHEM_CONNECTIVITY_SMILES>
CCOC(C)(C)C(=O)C

> <PUBCHEM_CACTVS_TPSA>
26.3

> <PUBCHEM_MONOISOTOPIC_WEIGHT>
130.099379685

> <PUBCHEM_TOTAL_CHARGE>
0

> <PUBCHEM_HEAVY_ATOM_COUNT>
9

> <PUBCHEM_ATOM_DEF_STEREO_COUNT>
0

> <PUBCHEM_ATOM_UDEF_STEREO_COUNT>
0

> <PUBCHEM_BOND_DEF_STEREO_COUNT>
0

> <PUBCHEM_BOND_UDEF_STEREO_COUNT>
0

> <PUBCHEM_ISOTOPIC_ATOM_COUNT>
0

> <PUBCHEM_COMPONENT_COUNT>
1

> <PUBCHEM_CACTVS_TAUTO_COUNT>
-1

> <PUBCHEM_COORDINATE_TYPE>
1
5
255

$$$$
