38190
  -OEChem-05122608242D

 53 53  0     1  0  0  0  0  0999 V2000
    9.4282   -6.4330    0.0000 O   0  0  0  0  0  0  0  0  0  0  0  0
    8.0622   -4.0670    0.0000 O   0  0  0  0  0  0  0  0  0  0  0  0
    4.5981    0.9330    0.0000 C   0  0  0  0  0  0  0  0  0  0  0  0
    5.4641    0.4330    0.0000 C   0  0  0  0  0  0  0  0  0  0  0  0
    4.5981    1.9330    0.0000 C   0  0  0  0  0  0  0  0  0  0  0  0
    5.4641   -0.5670    0.0000 C   0  0  0  0  0  0  0  0  0  0  0  0
    8.9282   -5.5670    0.0000 C   0  0  3  0  0  0  0  0  0  0  0  0
    3.7321    2.4330    0.0000 C   0  0  0  0  0  0  0  0  0  0  0  0
    6.3301   -1.0670    0.0000 C   0  0  0  0  0  0  0  0  0  0  0  0
    6.3301   -2.0670    0.0000 C   0  0  0  0  0  0  0  0  0  0  0  0
    3.7321    3.4330    0.0000 C   0  0  0  0  0  0  0  0  0  0  0  0
    9.9282   -5.5670    0.0000 C   0  0  0  0  0  0  0  0  0  0  0  0
    7.1962   -2.5670    0.0000 C   0  0  0  0  0  0  0  0  0  0  0  0
    2.8660    3.9330    0.0000 C   0  0  0  0  0  0  0  0  0  0  0  0
    8.0622   -5.0670    0.0000 C   0  0  0  0  0  0  0  0  0  0  0  0
    7.1962   -3.5670    0.0000 C   0  0  0  0  0  0  0  0  0  0  0  0
    2.8660    4.9330    0.0000 C   0  0  0  0  0  0  0  0  0  0  0  0
    2.0000    5.4330    0.0000 C   0  0  0  0  0  0  0  0  0  0  0  0
    2.0000    6.4330    0.0000 C   0  0  0  0  0  0  0  0  0  0  0  0
    3.9875    1.0407    0.0000 H   0  0  0  0  0  0  0  0  0  0  0  0
    4.3860    0.3504    0.0000 H   0  0  0  0  0  0  0  0  0  0  0  0
    6.0747    0.3254    0.0000 H   0  0  0  0  0  0  0  0  0  0  0  0
    5.6762    1.0156    0.0000 H   0  0  0  0  0  0  0  0  0  0  0  0
    5.2087    1.8254    0.0000 H   0  0  0  0  0  0  0  0  0  0  0  0
    4.8101    2.5156    0.0000 H   0  0  0  0  0  0  0  0  0  0  0  0
    4.8535   -0.4593    0.0000 H   0  0  0  0  0  0  0  0  0  0  0  0
    5.2521   -1.1496    0.0000 H   0  0  0  0  0  0  0  0  0  0  0  0
    8.4898   -6.0054    0.0000 H   0  0  0  0  0  0  0  0  0  0  0  0
    3.1215    2.5407    0.0000 H   0  0  0  0  0  0  0  0  0  0  0  0
    3.5200    1.8504    0.0000 H   0  0  0  0  0  0  0  0  0  0  0  0
    6.9407   -1.1747    0.0000 H   0  0  0  0  0  0  0  0  0  0  0  0
    6.5422   -0.4844    0.0000 H   0  0  0  0  0  0  0  0  0  0  0  0
    4.3426    3.3254    0.0000 H   0  0  0  0  0  0  0  0  0  0  0  0
    3.9441    4.0156    0.0000 H   0  0  0  0  0  0  0  0  0  0  0  0
    5.7196   -1.9593    0.0000 H   0  0  0  0  0  0  0  0  0  0  0  0
    6.1181   -2.6496    0.0000 H   0  0  0  0  0  0  0  0  0  0  0  0
   10.5108   -5.7790    0.0000 H   0  0  0  0  0  0  0  0  0  0  0  0
   10.0359   -4.9564    0.0000 H   0  0  0  0  0  0  0  0  0  0  0  0
    7.8067   -2.6747    0.0000 H   0  0  0  0  0  0  0  0  0  0  0  0
    7.4082   -1.9844    0.0000 H   0  0  0  0  0  0  0  0  0  0  0  0
    2.2554    4.0407    0.0000 H   0  0  0  0  0  0  0  0  0  0  0  0
    2.6540    3.3504    0.0000 H   0  0  0  0  0  0  0  0  0  0  0  0
    7.4516   -4.9593    0.0000 H   0  0  0  0  0  0  0  0  0  0  0  0
    7.8501   -5.6496    0.0000 H   0  0  0  0  0  0  0  0  0  0  0  0
    6.5856   -3.4593    0.0000 H   0  0  0  0  0  0  0  0  0  0  0  0
    6.9841   -4.1496    0.0000 H   0  0  0  0  0  0  0  0  0  0  0  0
    3.4766    4.8254    0.0000 H   0  0  0  0  0  0  0  0  0  0  0  0
    3.0781    5.5156    0.0000 H   0  0  0  0  0  0  0  0  0  0  0  0
    1.3894    5.5407    0.0000 H   0  0  0  0  0  0  0  0  0  0  0  0
    1.7880    4.8504    0.0000 H   0  0  0  0  0  0  0  0  0  0  0  0
    2.6200    6.4330    0.0000 H   0  0  0  0  0  0  0  0  0  0  0  0
    2.0000    7.0530    0.0000 H   0  0  0  0  0  0  0  0  0  0  0  0
    1.3800    6.4330    0.0000 H   0  0  0  0  0  0  0  0  0  0  0  0
  1  7  1  0  0  0  0
  1 12  1  0  0  0  0
  2 15  1  0  0  0  0
  2 16  1  0  0  0  0
  3  4  1  0  0  0  0
  3  5  1  0  0  0  0
  3 20  1  0  0  0  0
  3 21  1  0  0  0  0
  4  6  1  0  0  0  0
  4 22  1  0  0  0  0
  4 23  1  0  0  0  0
  5  8  1  0  0  0  0
  5 24  1  0  0  0  0
  5 25  1  0  0  0  0
  6  9  1  0  0  0  0
  6 26  1  0  0  0  0
  6 27  1  0  0  0  0
  7 12  1  0  0  0  0
  7 15  1  0  0  0  0
  7 28  1  0  0  0  0
  8 11  1  0  0  0  0
  8 29  1  0  0  0  0
  8 30  1  0  0  0  0
  9 10  1  0  0  0  0
  9 31  1  0  0  0  0
  9 32  1  0  0  0  0
 10 13  1  0  0  0  0
 10 35  1  0  0  0  0
 10 36  1  0  0  0  0
 11 14  1  0  0  0  0
 11 33  1  0  0  0  0
 11 34  1  0  0  0  0
 12 37  1  0  0  0  0
 12 38  1  0  0  0  0
 13 16  1  0  0  0  0
 13 39  1  0  0  0  0
 13 40  1  0  0  0  0
 14 17  1  0  0  0  0
 14 41  1  0  0  0  0
 14 42  1  0  0  0  0
 15 43  1  0  0  0  0
 15 44  1  0  0  0  0
 16 45  1  0  0  0  0
 16 46  1  0  0  0  0
 17 18  1  0  0  0  0
 17 47  1  0  0  0  0
 17 48  1  0  0  0  0
 18 19  1  0  0  0  0
 18 49  1  0  0  0  0
 18 50  1  0  0  0  0
 19 51  1  0  0  0  0
 19 52  1  0  0  0  0
 19 53  1  0  0  0  0
M  END
> <PUBCHEM_COMPOUND_CID>
38190

> <PUBCHEM_COMPOUND_CANONICALIZED>
1

> <PUBCHEM_CACTVS_COMPLEXITY>
182

> <PUBCHEM_CACTVS_HBOND_ACCEPTOR>
2

> <PUBCHEM_CACTVS_HBOND_DONOR>
0

> <PUBCHEM_CACTVS_ROTATABLE_BOND>
15

> <PUBCHEM_CACTVS_SUBSKEYS>
AAADcfB4MAAAAAAAAAAAAAAAEgAAAAAAAAAAAAAAAAAAAAAAAAAAGgAAAAAACBSggAICAAAABAAAAAAAAAAAAAAAAAAAAAAAAAABAAIAAAACAAAFAAACAAGAwKAAAAAAAAAAAAAAAAAAAAAAAAAAAAAAAA==

> <PUBCHEM_IUPAC_OPENEYE_NAME>
2-(tetradecoxymethyl)oxirane

> <PUBCHEM_IUPAC_CAS_NAME>
2-(tetradecoxymethyl)oxirane

> <PUBCHEM_IUPAC_NAME_MARKUP>
2-(tetradecoxymethyl)oxirane

> <PUBCHEM_IUPAC_NAME>
2-(tetradecoxymethyl)oxirane

> <PUBCHEM_IUPAC_SYSTEMATIC_NAME>
2-(tetradecoxymethyl)oxirane

> <PUBCHEM_IUPAC_TRADITIONAL_NAME>
2-(myristyloxymethyl)oxirane

> <PUBCHEM_IUPAC_INCHI>
InChI=1S/C17H34O2/c1-2-3-4-5-6-7-8-9-10-11-12-13-14-18-15-17-16-19-17/h17H,2-16H2,1H3

> <PUBCHEM_IUPAC_INCHIKEY>
NVKSMKFBUGBIGE-UHFFFAOYSA-N

> <PUBCHEM_XLOGP3_AA>
6.4

> <PUBCHEM_EXACT_MASS>
270.255880323

> <PUBCHEM_MOLECULAR_FORMULA>
C17H34O2

> <PUBCHEM_MOLECULAR_WEIGHT>
270.5

> <PUBCHEM_SMILES>
CCCCCCCCCCCCCCOCC1CO1

> <PUBCHEM_CONNECTIVITY_SMILES>
CCCCCCCCCCCCCCOCC1CO1

> <PUBCHEM_CACTVS_TPSA>
21.8

> <PUBCHEM_MONOISOTOPIC_WEIGHT>
270.255880323

> <PUBCHEM_TOTAL_CHARGE>
0

> <PUBCHEM_HEAVY_ATOM_COUNT>
19

> <PUBCHEM_ATOM_DEF_STEREO_COUNT>
0

> <PUBCHEM_ATOM_UDEF_STEREO_COUNT>
1

> <PUBCHEM_BOND_DEF_STEREO_COUNT>
0

> <PUBCHEM_BOND_UDEF_STEREO_COUNT>
0

> <PUBCHEM_ISOTOPIC_ATOM_COUNT>
0

> <PUBCHEM_COMPONENT_COUNT>
1

> <PUBCHEM_CACTVS_TAUTO_COUNT>
-1

> <PUBCHEM_COORDINATE_TYPE>
1
5
255

> <PUBCHEM_BONDANNOTATIONS>
7  15  3

$$$$
