38222
  -OEChem-05122609592D

 49 49  0     0  0  0  0  0  0999 V2000
    6.3301    5.0950    0.0000 S   0  0  0  0  0  0  0  0  0  0  0  0
    6.3301    6.0950    0.0000 O   0  0  0  0  0  0  0  0  0  0  0  0
    7.3301    5.0950    0.0000 O   0  0  0  0  0  0  0  0  0  0  0  0
    5.3301    5.0950    0.0000 O   0  0  0  0  0  0  0  0  0  0  0  0
    4.5981   -1.9050    0.0000 C   0  0  0  0  0  0  0  0  0  0  0  0
    3.7321   -2.4050    0.0000 C   0  0  0  0  0  0  0  0  0  0  0  0
    4.5981   -0.9050    0.0000 C   0  0  0  0  0  0  0  0  0  0  0  0
    3.7321   -3.4050    0.0000 C   0  0  0  0  0  0  0  0  0  0  0  0
    5.4641   -0.4050    0.0000 C   0  0  0  0  0  0  0  0  0  0  0  0
    2.8660   -3.9050    0.0000 C   0  0  0  0  0  0  0  0  0  0  0  0
    5.4641    0.5950    0.0000 C   0  0  0  0  0  0  0  0  0  0  0  0
    2.8660   -4.9050    0.0000 C   0  0  0  0  0  0  0  0  0  0  0  0
    6.3301    1.0950    0.0000 C   0  0  0  0  0  0  0  0  0  0  0  0
    2.0000   -5.4050    0.0000 C   0  0  0  0  0  0  0  0  0  0  0  0
    6.3301    2.0950    0.0000 C   0  0  0  0  0  0  0  0  0  0  0  0
    2.0000   -6.4050    0.0000 C   0  0  0  0  0  0  0  0  0  0  0  0
    7.1962    2.5950    0.0000 C   0  0  0  0  0  0  0  0  0  0  0  0
    5.4641    2.5950    0.0000 C   0  0  0  0  0  0  0  0  0  0  0  0
    6.3301    4.0950    0.0000 C   0  0  0  0  0  0  0  0  0  0  0  0
    7.1962    3.5950    0.0000 C   0  0  0  0  0  0  0  0  0  0  0  0
    5.4641    3.5950    0.0000 C   0  0  0  0  0  0  0  0  0  0  0  0
    4.8101   -2.4876    0.0000 H   0  0  0  0  0  0  0  0  0  0  0  0
    5.2087   -1.7973    0.0000 H   0  0  0  0  0  0  0  0  0  0  0  0
    3.5200   -1.8224    0.0000 H   0  0  0  0  0  0  0  0  0  0  0  0
    3.1215   -2.5127    0.0000 H   0  0  0  0  0  0  0  0  0  0  0  0
    4.3860   -0.3224    0.0000 H   0  0  0  0  0  0  0  0  0  0  0  0
    3.9875   -1.0127    0.0000 H   0  0  0  0  0  0  0  0  0  0  0  0
    3.9441   -3.9876    0.0000 H   0  0  0  0  0  0  0  0  0  0  0  0
    4.3426   -3.2973    0.0000 H   0  0  0  0  0  0  0  0  0  0  0  0
    5.6762   -0.9876    0.0000 H   0  0  0  0  0  0  0  0  0  0  0  0
    6.0747   -0.2973    0.0000 H   0  0  0  0  0  0  0  0  0  0  0  0
    2.6540   -3.3224    0.0000 H   0  0  0  0  0  0  0  0  0  0  0  0
    2.2554   -4.0127    0.0000 H   0  0  0  0  0  0  0  0  0  0  0  0
    5.2521    1.1776    0.0000 H   0  0  0  0  0  0  0  0  0  0  0  0
    4.8535    0.4873    0.0000 H   0  0  0  0  0  0  0  0  0  0  0  0
    3.0781   -5.4876    0.0000 H   0  0  0  0  0  0  0  0  0  0  0  0
    3.4766   -4.7973    0.0000 H   0  0  0  0  0  0  0  0  0  0  0  0
    6.5422    0.5124    0.0000 H   0  0  0  0  0  0  0  0  0  0  0  0
    6.9407    1.2027    0.0000 H   0  0  0  0  0  0  0  0  0  0  0  0
    1.7880   -4.8224    0.0000 H   0  0  0  0  0  0  0  0  0  0  0  0
    1.3894   -5.5127    0.0000 H   0  0  0  0  0  0  0  0  0  0  0  0
    1.3800   -6.4050    0.0000 H   0  0  0  0  0  0  0  0  0  0  0  0
    2.0000   -7.0250    0.0000 H   0  0  0  0  0  0  0  0  0  0  0  0
    2.6200   -6.4050    0.0000 H   0  0  0  0  0  0  0  0  0  0  0  0
    7.7331    2.2850    0.0000 H   0  0  0  0  0  0  0  0  0  0  0  0
    4.9272    2.2850    0.0000 H   0  0  0  0  0  0  0  0  0  0  0  0
    7.7331    3.9050    0.0000 H   0  0  0  0  0  0  0  0  0  0  0  0
    4.9272    3.9050    0.0000 H   0  0  0  0  0  0  0  0  0  0  0  0
    6.8671    6.4050    0.0000 H   0  0  0  0  0  0  0  0  0  0  0  0
  1  2  1  0  0  0  0
  1  3  2  0  0  0  0
  1  4  2  0  0  0  0
  1 19  1  0  0  0  0
  2 49  1  0  0  0  0
  5  6  1  0  0  0  0
  5  7  1  0  0  0  0
  5 22  1  0  0  0  0
  5 23  1  0  0  0  0
  6  8  1  0  0  0  0
  6 24  1  0  0  0  0
  6 25  1  0  0  0  0
  7  9  1  0  0  0  0
  7 26  1  0  0  0  0
  7 27  1  0  0  0  0
  8 10  1  0  0  0  0
  8 28  1  0  0  0  0
  8 29  1  0  0  0  0
  9 11  1  0  0  0  0
  9 30  1  0  0  0  0
  9 31  1  0  0  0  0
 10 12  1  0  0  0  0
 10 32  1  0  0  0  0
 10 33  1  0  0  0  0
 11 13  1  0  0  0  0
 11 34  1  0  0  0  0
 11 35  1  0  0  0  0
 12 14  1  0  0  0  0
 12 36  1  0  0  0  0
 12 37  1  0  0  0  0
 13 15  1  0  0  0  0
 13 38  1  0  0  0  0
 13 39  1  0  0  0  0
 14 16  1  0  0  0  0
 14 40  1  0  0  0  0
 14 41  1  0  0  0  0
 15 17  2  0  0  0  0
 15 18  1  0  0  0  0
 16 42  1  0  0  0  0
 16 43  1  0  0  0  0
 16 44  1  0  0  0  0
 17 20  1  0  0  0  0
 17 45  1  0  0  0  0
 18 21  2  0  0  0  0
 18 46  1  0  0  0  0
 19 20  2  0  0  0  0
 19 21  1  0  0  0  0
 20 47  1  0  0  0  0
 21 48  1  0  0  0  0
M  END
> <PUBCHEM_COMPOUND_CID>
38222

> <PUBCHEM_COMPOUND_CANONICALIZED>
1

> <PUBCHEM_CACTVS_COMPLEXITY>
338

> <PUBCHEM_CACTVS_HBOND_ACCEPTOR>
3

> <PUBCHEM_CACTVS_HBOND_DONOR>
1

> <PUBCHEM_CACTVS_ROTATABLE_BOND>
11

> <PUBCHEM_CACTVS_SUBSKEYS>
AAADceB4MABAAAAAAAAAAAAAAAAAAAAAAAAwAAAAAAAAAAABAAAAGAQACAAADACAWAAyAYAAAIKAAiBCAHBCAEAgAAAIiBgAAIgIICKAERCAIAAggAAIiAcAgMAOEAAAAAAAAAAgAAAAAAAAAAAAAAAAAA==

> <PUBCHEM_IUPAC_OPENEYE_NAME>
4-undecylbenzenesulfonic acid

> <PUBCHEM_IUPAC_CAS_NAME>
4-undecylbenzenesulfonic acid

> <PUBCHEM_IUPAC_NAME_MARKUP>
4-undecylbenzenesulfonic acid

> <PUBCHEM_IUPAC_NAME>
4-undecylbenzenesulfonic acid

> <PUBCHEM_IUPAC_SYSTEMATIC_NAME>
4-undecylbenzenesulfonic acid

> <PUBCHEM_IUPAC_TRADITIONAL_NAME>
4-undecylbesylic acid

> <PUBCHEM_IUPAC_INCHI>
InChI=1S/C17H28O3S/c1-2-3-4-5-6-7-8-9-10-11-16-12-14-17(15-13-16)21(18,19)20/h12-15H,2-11H2,1H3,(H,18,19,20)

> <PUBCHEM_IUPAC_INCHIKEY>
UCDCOJNNUVYFKJ-UHFFFAOYSA-N

> <PUBCHEM_XLOGP3>
6.4

> <PUBCHEM_EXACT_MASS>
312.17591592

> <PUBCHEM_MOLECULAR_FORMULA>
C17H28O3S

> <PUBCHEM_MOLECULAR_WEIGHT>
312.5

> <PUBCHEM_SMILES>
CCCCCCCCCCCC1=CC=C(C=C1)S(=O)(=O)O

> <PUBCHEM_CONNECTIVITY_SMILES>
CCCCCCCCCCCC1=CC=C(C=C1)S(=O)(=O)O

> <PUBCHEM_CACTVS_TPSA>
62.8

> <PUBCHEM_MONOISOTOPIC_WEIGHT>
312.17591592

> <PUBCHEM_TOTAL_CHARGE>
0

> <PUBCHEM_HEAVY_ATOM_COUNT>
21

> <PUBCHEM_ATOM_DEF_STEREO_COUNT>
0

> <PUBCHEM_ATOM_UDEF_STEREO_COUNT>
0

> <PUBCHEM_BOND_DEF_STEREO_COUNT>
0

> <PUBCHEM_BOND_UDEF_STEREO_COUNT>
0

> <PUBCHEM_ISOTOPIC_ATOM_COUNT>
0

> <PUBCHEM_COMPONENT_COUNT>
1

> <PUBCHEM_CACTVS_TAUTO_COUNT>
-1

> <PUBCHEM_COORDINATE_TYPE>
1
5
255

> <PUBCHEM_BONDANNOTATIONS>
15  17  8
15  18  8
17  20  8
18  21  8
19  20  8
19  21  8

$$$$
