38307
  -OEChem-05122609352D

 21 20  0     0  0  0  0  0  0999 V2000
    5.4641   -0.5000    0.0000 Cl  0  0  0  0  0  0  0  0  0  0  0  0
    2.0000   -0.5000    0.0000 Cl  0  0  0  0  0  0  0  0  0  0  0  0
    3.7321    0.5000    0.0000 O   0  0  0  0  0  0  0  0  0  0  0  0
    4.5981    0.0000    0.0000 C   0  0  0  0  0  0  0  0  0  0  0  0
    2.8660    0.0000    0.0000 C   0  0  0  0  0  0  0  0  0  0  0  0
    5.0981    0.8660    0.0000 C   0  0  0  0  0  0  0  0  0  0  0  0
    4.0981   -0.8660    0.0000 C   0  0  0  0  0  0  0  0  0  0  0  0
    2.3660    0.8660    0.0000 C   0  0  0  0  0  0  0  0  0  0  0  0
    3.3660   -0.8660    0.0000 C   0  0  0  0  0  0  0  0  0  0  0  0
    5.6350    0.5560    0.0000 H   0  0  0  0  0  0  0  0  0  0  0  0
    5.4081    1.4030    0.0000 H   0  0  0  0  0  0  0  0  0  0  0  0
    4.5611    1.1760    0.0000 H   0  0  0  0  0  0  0  0  0  0  0  0
    3.5611   -0.5560    0.0000 H   0  0  0  0  0  0  0  0  0  0  0  0
    3.7881   -1.4030    0.0000 H   0  0  0  0  0  0  0  0  0  0  0  0
    4.6350   -1.1760    0.0000 H   0  0  0  0  0  0  0  0  0  0  0  0
    2.9030    1.1760    0.0000 H   0  0  0  0  0  0  0  0  0  0  0  0
    2.0560    1.4030    0.0000 H   0  0  0  0  0  0  0  0  0  0  0  0
    1.8291    0.5560    0.0000 H   0  0  0  0  0  0  0  0  0  0  0  0
    2.8291   -1.1760    0.0000 H   0  0  0  0  0  0  0  0  0  0  0  0
    3.6760   -1.4030    0.0000 H   0  0  0  0  0  0  0  0  0  0  0  0
    3.9030   -0.5560    0.0000 H   0  0  0  0  0  0  0  0  0  0  0  0
  1  4  1  0  0  0  0
  2  5  1  0  0  0  0
  3  4  1  0  0  0  0
  3  5  1  0  0  0  0
  4  6  1  0  0  0  0
  4  7  1  0  0  0  0
  5  8  1  0  0  0  0
  5  9  1  0  0  0  0
  6 10  1  0  0  0  0
  6 11  1  0  0  0  0
  6 12  1  0  0  0  0
  7 13  1  0  0  0  0
  7 14  1  0  0  0  0
  7 15  1  0  0  0  0
  8 16  1  0  0  0  0
  8 17  1  0  0  0  0
  8 18  1  0  0  0  0
  9 19  1  0  0  0  0
  9 20  1  0  0  0  0
  9 21  1  0  0  0  0
M  END
> <PUBCHEM_COMPOUND_CID>
38307

> <PUBCHEM_COMPOUND_CANONICALIZED>
1

> <PUBCHEM_CACTVS_COMPLEXITY>
87.2

> <PUBCHEM_CACTVS_HBOND_ACCEPTOR>
1

> <PUBCHEM_CACTVS_HBOND_DONOR>
0

> <PUBCHEM_CACTVS_ROTATABLE_BOND>
2

> <PUBCHEM_CACTVS_SUBSKEYS>
AAADccBgIAAGAAAAAAAAAAAAAAAAAAAAAAAAAAAAAAAAAAAAAAAAGgIAAAAACAaAgAACAAAABAAAAAAAAAAAAAAAAAAAAAAAAAAAAAAAAAACAAAAAAAAAAAAAAAAAAAAAAAAAAAAAAAAAAAAAAAAAAAAAA==

> <PUBCHEM_IUPAC_OPENEYE_NAME>
2-chloro-2-(1-chloro-1-methyl-ethoxy)propane

> <PUBCHEM_IUPAC_CAS_NAME>
2-chloro-2-(2-chloropropan-2-yloxy)propane

> <PUBCHEM_IUPAC_NAME_MARKUP>
2-chloro-2-(2-chloropropan-2-yloxy)propane

> <PUBCHEM_IUPAC_NAME>
2-chloro-2-(2-chloropropan-2-yloxy)propane

> <PUBCHEM_IUPAC_SYSTEMATIC_NAME>
2-chloranyl-2-(2-chloranylpropan-2-yloxy)propane

> <PUBCHEM_IUPAC_TRADITIONAL_NAME>
2-chloro-2-(1-chloro-1-methyl-ethoxy)propane

> <PUBCHEM_IUPAC_INCHI>
InChI=1S/C6H12Cl2O/c1-5(2,7)9-6(3,4)8/h1-4H3

> <PUBCHEM_IUPAC_INCHIKEY>
BULHJTXRZFEUDQ-UHFFFAOYSA-N

> <PUBCHEM_XLOGP3_AA>
2.7

> <PUBCHEM_EXACT_MASS>
170.0265204

> <PUBCHEM_MOLECULAR_FORMULA>
C6H12Cl2O

> <PUBCHEM_MOLECULAR_WEIGHT>
171.06

> <PUBCHEM_SMILES>
CC(C)(OC(C)(C)Cl)Cl

> <PUBCHEM_CONNECTIVITY_SMILES>
CC(C)(OC(C)(C)Cl)Cl

> <PUBCHEM_CACTVS_TPSA>
9.2

> <PUBCHEM_MONOISOTOPIC_WEIGHT>
170.0265204

> <PUBCHEM_TOTAL_CHARGE>
0

> <PUBCHEM_HEAVY_ATOM_COUNT>
9

> <PUBCHEM_ATOM_DEF_STEREO_COUNT>
0

> <PUBCHEM_ATOM_UDEF_STEREO_COUNT>
0

> <PUBCHEM_BOND_DEF_STEREO_COUNT>
0

> <PUBCHEM_BOND_UDEF_STEREO_COUNT>
0

> <PUBCHEM_ISOTOPIC_ATOM_COUNT>
0

> <PUBCHEM_COMPONENT_COUNT>
1

> <PUBCHEM_CACTVS_TAUTO_COUNT>
-1

> <PUBCHEM_COORDINATE_TYPE>
1
5
255

$$$$
