3864254
  -OEChem-05122610002D

 18 17  0     0  0  0  0  0  0999 V2000
    4.7321   -1.9260    0.0000 F   0  0  0  0  0  0  0  0  0  0  0  0
    5.9641   -0.0600    0.0000 F   0  0  0  0  0  0  0  0  0  0  0  0
    5.0981    0.4400    0.0000 F   0  0  0  0  0  0  0  0  0  0  0  0
    5.5981   -1.4260    0.0000 F   0  0  0  0  0  0  0  0  0  0  0  0
    2.5000   -2.0600    0.0000 F   0  0  0  0  0  0  0  0  0  0  0  0
    2.8660   -0.6940    0.0000 F   0  0  0  0  0  0  0  0  0  0  0  0
    3.8660   -2.4260    0.0000 F   0  0  0  0  0  0  0  0  0  0  0  0
    4.2321    0.6721    0.0000 F   0  0  0  0  0  0  0  0  0  0  0  0
    2.0000   -0.1940    0.0000 F   0  0  0  0  0  0  0  0  0  0  0  0
    2.0000    1.8060    0.0000 O   0  0  0  0  0  0  0  0  0  0  0  0
    3.7321    1.8060    0.0000 O   0  0  0  0  0  0  0  0  0  0  0  0
    4.2321   -1.0600    0.0000 C   0  0  0  0  0  0  0  0  0  0  0  0
    5.0981   -0.5600    0.0000 C   0  0  0  0  0  0  0  0  0  0  0  0
    3.3660   -1.5600    0.0000 C   0  0  0  0  0  0  0  0  0  0  0  0
    3.7321   -0.1940    0.0000 C   0  0  0  0  0  0  0  0  0  0  0  0
    2.8660    0.3060    0.0000 C   0  0  0  0  0  0  0  0  0  0  0  0
    2.8660    1.3060    0.0000 C   0  0  0  0  0  0  0  0  0  0  0  0
    2.0000    2.4260    0.0000 H   0  0  0  0  0  0  0  0  0  0  0  0
  1 12  1  0  0  0  0
  2 13  1  0  0  0  0
  3 13  1  0  0  0  0
  4 13  1  0  0  0  0
  5 14  1  0  0  0  0
  6 14  1  0  0  0  0
  7 14  1  0  0  0  0
  8 15  1  0  0  0  0
  9 16  1  0  0  0  0
 10 17  1  0  0  0  0
 10 18  1  0  0  0  0
 11 17  2  0  0  0  0
 12 13  1  0  0  0  0
 12 14  1  0  0  0  0
 12 15  1  0  0  0  0
 15 16  2  3  0  0  0
 16 17  1  0  0  0  0
M  END
> <PUBCHEM_COMPOUND_CID>
3864254

> <PUBCHEM_COMPOUND_CANONICALIZED>
1

> <PUBCHEM_CACTVS_COMPLEXITY>
335

> <PUBCHEM_CACTVS_HBOND_ACCEPTOR>
11

> <PUBCHEM_CACTVS_HBOND_DONOR>
1

> <PUBCHEM_CACTVS_ROTATABLE_BOND>
2

> <PUBCHEM_CACTVS_SUBSKEYS>
AAADcQBgMcAAAAAAAAAAAAAAAAAAAAAAAAAAAAAAAAAAAAAAAAAACwAACAAADAAAgBAACAAAAgCIAADQCAAAAAAgAAAACAAAAEgABAAAAAAAEAAAAAAIEQIAAAAAAAAAAAAAAAAAAAAAAAAAAAAAAAAAAA==

> <PUBCHEM_IUPAC_OPENEYE_NAME>
2,3,4,5,5,5-hexafluoro-4-(trifluoromethyl)pent-2-enoic acid

> <PUBCHEM_IUPAC_CAS_NAME>
2,3,4,5,5,5-hexafluoro-4-(trifluoromethyl)-2-pentenoic acid

> <PUBCHEM_IUPAC_NAME_MARKUP>
2,3,4,5,5,5-hexafluoro-4-(trifluoromethyl)pent-2-enoic acid

> <PUBCHEM_IUPAC_NAME>
2,3,4,5,5,5-hexafluoro-4-(trifluoromethyl)pent-2-enoic acid

> <PUBCHEM_IUPAC_SYSTEMATIC_NAME>
2,3,4,5,5,5-hexakis(fluoranyl)-4-(trifluoromethyl)pent-2-enoic acid

> <PUBCHEM_IUPAC_TRADITIONAL_NAME>
2,3,4,5,5,5-hexafluoro-4-(trifluoromethyl)pent-2-enoic acid

> <PUBCHEM_IUPAC_INCHI>
InChI=1S/C6HF9O2/c7-1(3(16)17)2(8)4(9,5(10,11)12)6(13,14)15/h(H,16,17)

> <PUBCHEM_IUPAC_INCHIKEY>
TWDHAMRDYDLSPH-UHFFFAOYSA-N

> <PUBCHEM_XLOGP3_AA>
2.7

> <PUBCHEM_EXACT_MASS>
275.98328273

> <PUBCHEM_MOLECULAR_FORMULA>
C6HF9O2

> <PUBCHEM_MOLECULAR_WEIGHT>
276.06

> <PUBCHEM_SMILES>
C(=C(C(C(F)(F)F)(C(F)(F)F)F)F)(C(=O)O)F

> <PUBCHEM_CONNECTIVITY_SMILES>
C(=C(C(C(F)(F)F)(C(F)(F)F)F)F)(C(=O)O)F

> <PUBCHEM_CACTVS_TPSA>
37.3

> <PUBCHEM_MONOISOTOPIC_WEIGHT>
275.98328273

> <PUBCHEM_TOTAL_CHARGE>
0

> <PUBCHEM_HEAVY_ATOM_COUNT>
17

> <PUBCHEM_ATOM_DEF_STEREO_COUNT>
0

> <PUBCHEM_ATOM_UDEF_STEREO_COUNT>
0

> <PUBCHEM_BOND_DEF_STEREO_COUNT>
0

> <PUBCHEM_BOND_UDEF_STEREO_COUNT>
1

> <PUBCHEM_ISOTOPIC_ATOM_COUNT>
0

> <PUBCHEM_COMPONENT_COUNT>
1

> <PUBCHEM_CACTVS_TAUTO_COUNT>
-1

> <PUBCHEM_COORDINATE_TYPE>
1
5
255

> <PUBCHEM_BONDANNOTATIONS>
15  16  1

$$$$
