39067
  -OEChem-05122609452D

 48 48  0     1  0  0  0  0  0999 V2000
    9.3660    1.9821    0.0000 C   0  0  3  0  0  0  0  0  0  0  0  0
    8.5000    1.4821    0.0000 C   0  0  3  0  0  0  0  0  0  0  0  0
    8.5000    2.4821    0.0000 C   0  0  0  0  0  0  0  0  0  0  0  0
    9.8660    1.1160    0.0000 C   0  0  0  0  0  0  0  0  0  0  0  0
    8.0000    0.6160    0.0000 C   0  0  0  0  0  0  0  0  0  0  0  0
    9.8660    2.8481    0.0000 C   0  0  0  0  0  0  0  0  0  0  0  0
    7.0000    0.6160    0.0000 C   0  0  0  0  0  0  0  0  0  0  0  0
   10.8660    1.1160    0.0000 C   0  0  0  0  0  0  0  0  0  0  0  0
    9.3660    0.2500    0.0000 C   0  0  0  0  0  0  0  0  0  0  0  0
    6.5000   -0.2500    0.0000 C   0  0  0  0  0  0  0  0  0  0  0  0
    5.5000   -0.2500    0.0000 C   0  0  0  0  0  0  0  0  0  0  0  0
    5.0000   -1.1160    0.0000 C   0  0  0  0  0  0  0  0  0  0  0  0
    4.0000   -1.1160    0.0000 C   0  0  0  0  0  0  0  0  0  0  0  0
    3.5000   -1.9821    0.0000 C   0  0  0  0  0  0  0  0  0  0  0  0
    2.5000   -1.9821    0.0000 C   0  0  0  0  0  0  0  0  0  0  0  0
    2.0000   -2.8481    0.0000 C   0  0  0  0  0  0  0  0  0  0  0  0
    8.9384    1.0436    0.0000 H   0  0  0  0  0  0  0  0  0  0  0  0
    8.7121    3.0647    0.0000 H   0  0  0  0  0  0  0  0  0  0  0  0
    7.8894    2.5897    0.0000 H   0  0  0  0  0  0  0  0  0  0  0  0
   10.1760    1.6530    0.0000 H   0  0  0  0  0  0  0  0  0  0  0  0
    7.8923    0.0054    0.0000 H   0  0  0  0  0  0  0  0  0  0  0  0
    8.5826    0.4040    0.0000 H   0  0  0  0  0  0  0  0  0  0  0  0
   10.4030    2.5381    0.0000 H   0  0  0  0  0  0  0  0  0  0  0  0
   10.1760    3.3850    0.0000 H   0  0  0  0  0  0  0  0  0  0  0  0
    9.3291    3.1581    0.0000 H   0  0  0  0  0  0  0  0  0  0  0  0
    7.1077    1.2266    0.0000 H   0  0  0  0  0  0  0  0  0  0  0  0
    6.4174    0.8281    0.0000 H   0  0  0  0  0  0  0  0  0  0  0  0
   10.8660    0.4960    0.0000 H   0  0  0  0  0  0  0  0  0  0  0  0
   11.4860    1.1160    0.0000 H   0  0  0  0  0  0  0  0  0  0  0  0
   10.8660    1.7360    0.0000 H   0  0  0  0  0  0  0  0  0  0  0  0
    8.8291    0.5600    0.0000 H   0  0  0  0  0  0  0  0  0  0  0  0
    9.0560   -0.2869    0.0000 H   0  0  0  0  0  0  0  0  0  0  0  0
    9.9030   -0.0600    0.0000 H   0  0  0  0  0  0  0  0  0  0  0  0
    6.3923   -0.8606    0.0000 H   0  0  0  0  0  0  0  0  0  0  0  0
    7.0826   -0.4621    0.0000 H   0  0  0  0  0  0  0  0  0  0  0  0
    5.6077    0.3606    0.0000 H   0  0  0  0  0  0  0  0  0  0  0  0
    4.9174   -0.0379    0.0000 H   0  0  0  0  0  0  0  0  0  0  0  0
    4.8923   -1.7266    0.0000 H   0  0  0  0  0  0  0  0  0  0  0  0
    5.5826   -1.3281    0.0000 H   0  0  0  0  0  0  0  0  0  0  0  0
    4.1077   -0.5054    0.0000 H   0  0  0  0  0  0  0  0  0  0  0  0
    3.4174   -0.9040    0.0000 H   0  0  0  0  0  0  0  0  0  0  0  0
    3.3923   -2.5926    0.0000 H   0  0  0  0  0  0  0  0  0  0  0  0
    4.0826   -2.1941    0.0000 H   0  0  0  0  0  0  0  0  0  0  0  0
    2.6077   -1.3715    0.0000 H   0  0  0  0  0  0  0  0  0  0  0  0
    1.9174   -1.7700    0.0000 H   0  0  0  0  0  0  0  0  0  0  0  0
    1.4631   -2.5381    0.0000 H   0  0  0  0  0  0  0  0  0  0  0  0
    1.6900   -3.3850    0.0000 H   0  0  0  0  0  0  0  0  0  0  0  0
    2.5369   -3.1581    0.0000 H   0  0  0  0  0  0  0  0  0  0  0  0
  1  2  1  0  0  0  0
  1  3  1  0  0  0  0
  1  4  1  0  0  0  0
  1  6  1  0  0  0  0
  2  3  1  0  0  0  0
  2  5  1  0  0  0  0
  2 17  1  0  0  0  0
  3 18  1  0  0  0  0
  3 19  1  0  0  0  0
  4  8  1  0  0  0  0
  4  9  1  0  0  0  0
  4 20  1  0  0  0  0
  5  7  1  0  0  0  0
  5 21  1  0  0  0  0
  5 22  1  0  0  0  0
  6 23  1  0  0  0  0
  6 24  1  0  0  0  0
  6 25  1  0  0  0  0
  7 10  1  0  0  0  0
  7 26  1  0  0  0  0
  7 27  1  0  0  0  0
  8 28  1  0  0  0  0
  8 29  1  0  0  0  0
  8 30  1  0  0  0  0
  9 31  1  0  0  0  0
  9 32  1  0  0  0  0
  9 33  1  0  0  0  0
 10 11  1  0  0  0  0
 10 34  1  0  0  0  0
 10 35  1  0  0  0  0
 11 12  1  0  0  0  0
 11 36  1  0  0  0  0
 11 37  1  0  0  0  0
 12 13  1  0  0  0  0
 12 38  1  0  0  0  0
 12 39  1  0  0  0  0
 13 14  1  0  0  0  0
 13 40  1  0  0  0  0
 13 41  1  0  0  0  0
 14 15  1  0  0  0  0
 14 42  1  0  0  0  0
 14 43  1  0  0  0  0
 15 16  1  0  0  0  0
 15 44  1  0  0  0  0
 15 45  1  0  0  0  0
 16 46  1  0  0  0  0
 16 47  1  0  0  0  0
 16 48  1  0  0  0  0
M  END
> <PUBCHEM_COMPOUND_CID>
39067

> <PUBCHEM_COMPOUND_CANONICALIZED>
1

> <PUBCHEM_CACTVS_COMPLEXITY>
182

> <PUBCHEM_CACTVS_HBOND_ACCEPTOR>
0

> <PUBCHEM_CACTVS_HBOND_DONOR>
0

> <PUBCHEM_CACTVS_ROTATABLE_BOND>
9

> <PUBCHEM_CACTVS_SUBSKEYS>
AAADcfB4AAAAAAAAAAAAAAAAGAAAAAAAAAAAAAAAAAAAAAAAAAAAGAAAAAAADwCAAAACAAAAAAAAAAAAAAAAAAAAAAAAAAAAAAAAAAIAAAAAAAAAAAAAAAEAgMAPgAAAAAAAAAAAAAAAAAAAAAAAAAAAAA==

> <PUBCHEM_IUPAC_OPENEYE_NAME>
1-isopropyl-1-methyl-2-nonyl-cyclopropane

> <PUBCHEM_IUPAC_CAS_NAME>
1-methyl-2-nonyl-1-propan-2-ylcyclopropane

> <PUBCHEM_IUPAC_NAME_MARKUP>
1-methyl-2-nonyl-1-propan-2-ylcyclopropane

> <PUBCHEM_IUPAC_NAME>
1-methyl-2-nonyl-1-propan-2-ylcyclopropane

> <PUBCHEM_IUPAC_SYSTEMATIC_NAME>
1-methyl-2-nonyl-1-propan-2-yl-cyclopropane

> <PUBCHEM_IUPAC_TRADITIONAL_NAME>
1-isopropyl-1-methyl-2-nonyl-cyclopropane

> <PUBCHEM_IUPAC_INCHI>
InChI=1S/C16H32/c1-5-6-7-8-9-10-11-12-15-13-16(15,4)14(2)3/h14-15H,5-13H2,1-4H3

> <PUBCHEM_IUPAC_INCHIKEY>
NSVIBONLTXWPDY-UHFFFAOYSA-N

> <PUBCHEM_XLOGP3_AA>
7.7

> <PUBCHEM_EXACT_MASS>
224.250401021

> <PUBCHEM_MOLECULAR_FORMULA>
C16H32

> <PUBCHEM_MOLECULAR_WEIGHT>
224.42

> <PUBCHEM_SMILES>
CCCCCCCCCC1CC1(C)C(C)C

> <PUBCHEM_CONNECTIVITY_SMILES>
CCCCCCCCCC1CC1(C)C(C)C

> <PUBCHEM_CACTVS_TPSA>
0

> <PUBCHEM_MONOISOTOPIC_WEIGHT>
224.250401021

> <PUBCHEM_TOTAL_CHARGE>
0

> <PUBCHEM_HEAVY_ATOM_COUNT>
16

> <PUBCHEM_ATOM_DEF_STEREO_COUNT>
0

> <PUBCHEM_ATOM_UDEF_STEREO_COUNT>
2

> <PUBCHEM_BOND_DEF_STEREO_COUNT>
0

> <PUBCHEM_BOND_UDEF_STEREO_COUNT>
0

> <PUBCHEM_ISOTOPIC_ATOM_COUNT>
0

> <PUBCHEM_COMPONENT_COUNT>
1

> <PUBCHEM_CACTVS_TAUTO_COUNT>
-1

> <PUBCHEM_COORDINATE_TYPE>
1
5
255

> <PUBCHEM_BONDANNOTATIONS>
1  6  3
2  5  3

$$$$
