40893
  -OEChem-05122608252D

 19 19  0     1  0  0  0  0  0999 V2000
    3.7071   -0.5000    0.0000 O   0  0  0  0  0  0  0  0  0  0  0  0
    2.7071    0.5000    0.0000 C   0  0  0  0  0  0  0  0  0  0  0  0
    3.7071    0.5000    0.0000 C   0  0  3  0  0  0  0  0  0  0  0  0
    2.7071   -0.5000    0.0000 C   0  0  3  0  0  0  0  0  0  0  0  0
    2.0000    1.2071    0.0000 C   0  0  0  0  0  0  0  0  0  0  0  0
    4.4142    1.2071    0.0000 C   0  0  0  0  0  0  0  0  0  0  0  0
    2.0000   -1.2071    0.0000 C   0  0  0  0  0  0  0  0  0  0  0  0
    2.9444    1.0728    0.0000 H   0  0  0  0  0  0  0  0  0  0  0  0
    4.2799    0.2627    0.0000 H   0  0  0  0  0  0  0  0  0  0  0  0
    2.9444   -1.0728    0.0000 H   0  0  0  0  0  0  0  0  0  0  0  0
    2.4384    1.6455    0.0000 H   0  0  0  0  0  0  0  0  0  0  0  0
    1.5616    1.6455    0.0000 H   0  0  0  0  0  0  0  0  0  0  0  0
    1.5616    0.7687    0.0000 H   0  0  0  0  0  0  0  0  0  0  0  0
    4.8526    0.7687    0.0000 H   0  0  0  0  0  0  0  0  0  0  0  0
    4.8526    1.6455    0.0000 H   0  0  0  0  0  0  0  0  0  0  0  0
    3.9758    1.6455    0.0000 H   0  0  0  0  0  0  0  0  0  0  0  0
    1.5616   -0.7687    0.0000 H   0  0  0  0  0  0  0  0  0  0  0  0
    1.5616   -1.6455    0.0000 H   0  0  0  0  0  0  0  0  0  0  0  0
    2.4384   -1.6455    0.0000 H   0  0  0  0  0  0  0  0  0  0  0  0
  1  3  1  0  0  0  0
  1  4  1  0  0  0  0
  2  3  1  0  0  0  0
  2  4  1  0  0  0  0
  2  5  1  0  0  0  0
  2  8  1  0  0  0  0
  3  6  1  0  0  0  0
  3  9  1  0  0  0  0
  4  7  1  0  0  0  0
  4 10  1  0  0  0  0
  5 11  1  0  0  0  0
  5 12  1  0  0  0  0
  5 13  1  0  0  0  0
  6 14  1  0  0  0  0
  6 15  1  0  0  0  0
  6 16  1  0  0  0  0
  7 17  1  0  0  0  0
  7 18  1  0  0  0  0
  7 19  1  0  0  0  0
M  END
> <PUBCHEM_COMPOUND_CID>
40893

> <PUBCHEM_COMPOUND_CANONICALIZED>
1

> <PUBCHEM_CACTVS_COMPLEXITY>
62.6

> <PUBCHEM_CACTVS_HBOND_ACCEPTOR>
1

> <PUBCHEM_CACTVS_HBOND_DONOR>
0

> <PUBCHEM_CACTVS_ROTATABLE_BOND>
0

> <PUBCHEM_CACTVS_SUBSKEYS>
AAADccBgIAAAAAAAAAAAAAAAAABIAAAAAAAAAAAAAAAAAAAAAAAAGgAAAAAADRSggAICAAAABAAAAAAAAAAAAAAAAAAAAAAAAAAAAAIAAAACAAAEAAAAAAAAAAAKAAAAAAAAAAAAAAAAAAAAAAAAAAAAAA==

> <PUBCHEM_IUPAC_OPENEYE_NAME>
2,3,4-trimethyloxetane

> <PUBCHEM_IUPAC_CAS_NAME>
2,3,4-trimethyloxetane

> <PUBCHEM_IUPAC_NAME_MARKUP>
2,3,4-trimethyloxetane

> <PUBCHEM_IUPAC_NAME>
2,3,4-trimethyloxetane

> <PUBCHEM_IUPAC_SYSTEMATIC_NAME>
2,3,4-trimethyloxetane

> <PUBCHEM_IUPAC_TRADITIONAL_NAME>
2,3,4-trimethyloxetane

> <PUBCHEM_IUPAC_INCHI>
InChI=1S/C6H12O/c1-4-5(2)7-6(4)3/h4-6H,1-3H3

> <PUBCHEM_IUPAC_INCHIKEY>
HTCOCLGRYILICZ-UHFFFAOYSA-N

> <PUBCHEM_XLOGP3_AA>
1.5

> <PUBCHEM_EXACT_MASS>
100.088815002

> <PUBCHEM_MOLECULAR_FORMULA>
C6H12O

> <PUBCHEM_MOLECULAR_WEIGHT>
100.16

> <PUBCHEM_SMILES>
CC1C(OC1C)C

> <PUBCHEM_CONNECTIVITY_SMILES>
CC1C(OC1C)C

> <PUBCHEM_CACTVS_TPSA>
9.2

> <PUBCHEM_MONOISOTOPIC_WEIGHT>
100.088815002

> <PUBCHEM_TOTAL_CHARGE>
0

> <PUBCHEM_HEAVY_ATOM_COUNT>
7

> <PUBCHEM_ATOM_DEF_STEREO_COUNT>
0

> <PUBCHEM_ATOM_UDEF_STEREO_COUNT>
2

> <PUBCHEM_BOND_DEF_STEREO_COUNT>
0

> <PUBCHEM_BOND_UDEF_STEREO_COUNT>
0

> <PUBCHEM_ISOTOPIC_ATOM_COUNT>
0

> <PUBCHEM_COMPONENT_COUNT>
1

> <PUBCHEM_CACTVS_TAUTO_COUNT>
-1

> <PUBCHEM_COORDINATE_TYPE>
1
5
255

> <PUBCHEM_BONDANNOTATIONS>
3  6  3
4  7  3

$$$$
