41172
  -OEChem-05122608282D

 30 31  0     0  0  0  0  0  0999 V2000
    3.7320    0.2327    0.0000 C   0  0  0  0  0  0  0  0  0  0  0  0
    3.7320   -0.7673    0.0000 C   0  0  0  0  0  0  0  0  0  0  0  0
    4.5981    0.7327    0.0000 C   0  0  0  0  0  0  0  0  0  0  0  0
    2.8660    0.7327    0.0000 C   0  0  0  0  0  0  0  0  0  0  0  0
    2.8660   -1.2673    0.0000 C   0  0  0  0  0  0  0  0  0  0  0  0
    4.5981    1.7327    0.0000 C   0  0  0  0  0  0  0  0  0  0  0  0
    2.8660    1.7327    0.0000 C   0  0  0  0  0  0  0  0  0  0  0  0
    3.7320    2.2327    0.0000 C   0  0  0  0  0  0  0  0  0  0  0  0
    5.4920    0.1980    0.0000 C   0  0  0  0  0  0  0  0  0  0  0  0
    2.0000    0.2327    0.0000 C   0  0  0  0  0  0  0  0  0  0  0  0
    5.4920    2.2673    0.0000 C   0  0  0  0  0  0  0  0  0  0  0  0
    2.8660   -2.2673    0.0000 C   0  0  0  0  0  0  0  0  0  0  0  0
    6.3981    0.7119    0.0000 C   0  0  0  0  0  0  0  0  0  0  0  0
    6.3981    1.7535    0.0000 C   0  0  0  0  0  0  0  0  0  0  0  0
    3.9441   -1.3499    0.0000 H   0  0  0  0  0  0  0  0  0  0  0  0
    4.3426   -0.6597    0.0000 H   0  0  0  0  0  0  0  0  0  0  0  0
    2.6540   -0.6847    0.0000 H   0  0  0  0  0  0  0  0  0  0  0  0
    2.2554   -1.3750    0.0000 H   0  0  0  0  0  0  0  0  0  0  0  0
    2.3291    2.0427    0.0000 H   0  0  0  0  0  0  0  0  0  0  0  0
    3.7320    2.8527    0.0000 H   0  0  0  0  0  0  0  0  0  0  0  0
    5.4848   -0.4220    0.0000 H   0  0  0  0  0  0  0  0  0  0  0  0
    1.6900    0.7696    0.0000 H   0  0  0  0  0  0  0  0  0  0  0  0
    1.4631   -0.0773    0.0000 H   0  0  0  0  0  0  0  0  0  0  0  0
    2.3100   -0.3043    0.0000 H   0  0  0  0  0  0  0  0  0  0  0  0
    5.4848    2.8873    0.0000 H   0  0  0  0  0  0  0  0  0  0  0  0
    2.2460   -2.2673    0.0000 H   0  0  0  0  0  0  0  0  0  0  0  0
    2.8660   -2.8873    0.0000 H   0  0  0  0  0  0  0  0  0  0  0  0
    3.4860   -2.2673    0.0000 H   0  0  0  0  0  0  0  0  0  0  0  0
    6.9338    0.3998    0.0000 H   0  0  0  0  0  0  0  0  0  0  0  0
    6.9338    2.0656    0.0000 H   0  0  0  0  0  0  0  0  0  0  0  0
  1  2  1  0  0  0  0
  1  3  1  0  0  0  0
  1  4  2  0  0  0  0
  2  5  1  0  0  0  0
  2 15  1  0  0  0  0
  2 16  1  0  0  0  0
  3  6  1  0  0  0  0
  3  9  2  0  0  0  0
  4  7  1  0  0  0  0
  4 10  1  0  0  0  0
  5 12  1  0  0  0  0
  5 17  1  0  0  0  0
  5 18  1  0  0  0  0
  6  8  1  0  0  0  0
  6 11  2  0  0  0  0
  7  8  2  0  0  0  0
  7 19  1  0  0  0  0
  8 20  1  0  0  0  0
  9 13  1  0  0  0  0
  9 21  1  0  0  0  0
 10 22  1  0  0  0  0
 10 23  1  0  0  0  0
 10 24  1  0  0  0  0
 11 14  1  0  0  0  0
 11 25  1  0  0  0  0
 12 26  1  0  0  0  0
 12 27  1  0  0  0  0
 12 28  1  0  0  0  0
 13 14  2  0  0  0  0
 13 29  1  0  0  0  0
 14 30  1  0  0  0  0
M  END
> <PUBCHEM_COMPOUND_CID>
41172

> <PUBCHEM_COMPOUND_CANONICALIZED>
1

> <PUBCHEM_CACTVS_COMPLEXITY>
173

> <PUBCHEM_CACTVS_HBOND_ACCEPTOR>
0

> <PUBCHEM_CACTVS_HBOND_DONOR>
0

> <PUBCHEM_CACTVS_ROTATABLE_BOND>
2

> <PUBCHEM_CACTVS_SUBSKEYS>
AAADceBwAAAAAAAAAAAAAAAAAAAAAAAAAAAwYAAAAAAAAADBUAAAGAAAAAAADACAGAAyAMAAAACAAiBCAAACAAAgAAAIiAAAAIgIICKAERCAIAAggAAIiAcAgMAOwAACAAAQAACAAAQAACAAAAAAAAAAAA==

> <PUBCHEM_IUPAC_OPENEYE_NAME>
2-methyl-1-propyl-naphthalene

> <PUBCHEM_IUPAC_CAS_NAME>
2-methyl-1-propylnaphthalene

> <PUBCHEM_IUPAC_NAME_MARKUP>
2-methyl-1-propylnaphthalene

> <PUBCHEM_IUPAC_NAME>
2-methyl-1-propylnaphthalene

> <PUBCHEM_IUPAC_SYSTEMATIC_NAME>
2-methyl-1-propyl-naphthalene

> <PUBCHEM_IUPAC_TRADITIONAL_NAME>
2-methyl-1-propyl-naphthalene

> <PUBCHEM_IUPAC_INCHI>
InChI=1S/C14H16/c1-3-6-13-11(2)9-10-12-7-4-5-8-14(12)13/h4-5,7-10H,3,6H2,1-2H3

> <PUBCHEM_IUPAC_INCHIKEY>
BTYYGWOCMUPYPQ-UHFFFAOYSA-N

> <PUBCHEM_XLOGP3>
5.3

> <PUBCHEM_EXACT_MASS>
184.125200510

> <PUBCHEM_MOLECULAR_FORMULA>
C14H16

> <PUBCHEM_MOLECULAR_WEIGHT>
184.28

> <PUBCHEM_SMILES>
CCCC1=C(C=CC2=CC=CC=C21)C

> <PUBCHEM_CONNECTIVITY_SMILES>
CCCC1=C(C=CC2=CC=CC=C21)C

> <PUBCHEM_CACTVS_TPSA>
0

> <PUBCHEM_MONOISOTOPIC_WEIGHT>
184.125200510

> <PUBCHEM_TOTAL_CHARGE>
0

> <PUBCHEM_HEAVY_ATOM_COUNT>
14

> <PUBCHEM_ATOM_DEF_STEREO_COUNT>
0

> <PUBCHEM_ATOM_UDEF_STEREO_COUNT>
0

> <PUBCHEM_BOND_DEF_STEREO_COUNT>
0

> <PUBCHEM_BOND_UDEF_STEREO_COUNT>
0

> <PUBCHEM_ISOTOPIC_ATOM_COUNT>
0

> <PUBCHEM_COMPONENT_COUNT>
1

> <PUBCHEM_CACTVS_TAUTO_COUNT>
-1

> <PUBCHEM_COORDINATE_TYPE>
1
5
255

> <PUBCHEM_BONDANNOTATIONS>
1  3  8
1  4  8
11  14  8
13  14  8
3  6  8
3  9  8
4  7  8
6  11  8
6  8  8
7  8  8
9  13  8

$$$$
