4166922
  -OEChem-05122608542D

 54 55  0     1  0  0  0  0  0999 V2000
    4.2690    7.1550    0.0000 Cl  0  0  0  0  0  0  0  0  0  0  0  0
    4.2690   -3.8450    0.0000 O   0  0  0  0  0  0  0  0  0  0  0  0
    4.2690    4.1550    0.0000 O   0  0  0  0  0  0  0  0  0  0  0  0
    4.2690   -5.8450    0.0000 O   0  0  0  0  0  0  0  0  0  0  0  0
    6.0010    6.1550    0.0000 O   0  0  0  0  0  0  0  0  0  0  0  0
    2.5369   -6.8450    0.0000 O   0  0  0  0  0  0  0  0  0  0  0  0
    4.2690    0.1550    0.0000 C   0  0  0  0  0  0  0  0  0  0  0  0
    4.2690   -0.8450    0.0000 C   0  0  0  0  0  0  0  0  0  0  0  0
    4.2690    1.1550    0.0000 C   0  0  0  0  0  0  0  0  0  0  0  0
    5.2690    0.1550    0.0000 C   0  0  0  0  0  0  0  0  0  0  0  0
    3.2690    0.1550    0.0000 C   0  0  0  0  0  0  0  0  0  0  0  0
    5.1350   -1.3450    0.0000 C   0  0  0  0  0  0  0  0  0  0  0  0
    3.4030   -1.3450    0.0000 C   0  0  0  0  0  0  0  0  0  0  0  0
    3.4030    1.6550    0.0000 C   0  0  0  0  0  0  0  0  0  0  0  0
    5.1350    1.6550    0.0000 C   0  0  0  0  0  0  0  0  0  0  0  0
    5.1350   -2.3450    0.0000 C   0  0  0  0  0  0  0  0  0  0  0  0
    3.4030   -2.3450    0.0000 C   0  0  0  0  0  0  0  0  0  0  0  0
    3.4030    2.6550    0.0000 C   0  0  0  0  0  0  0  0  0  0  0  0
    5.1350    2.6550    0.0000 C   0  0  0  0  0  0  0  0  0  0  0  0
    4.2690   -2.8450    0.0000 C   0  0  0  0  0  0  0  0  0  0  0  0
    4.2690    3.1550    0.0000 C   0  0  0  0  0  0  0  0  0  0  0  0
    3.4030   -4.3450    0.0000 C   0  0  0  0  0  0  0  0  0  0  0  0
    5.1350    4.6550    0.0000 C   0  0  0  0  0  0  0  0  0  0  0  0
    3.4030   -5.3450    0.0000 C   0  0  3  0  0  0  0  0  0  0  0  0
    5.1350    5.6550    0.0000 C   0  0  3  0  0  0  0  0  0  0  0  0
    2.5369   -5.8450    0.0000 C   0  0  0  0  0  0  0  0  0  0  0  0
    4.2690    6.1550    0.0000 C   0  0  0  0  0  0  0  0  0  0  0  0
    5.2690   -0.4650    0.0000 H   0  0  0  0  0  0  0  0  0  0  0  0
    5.8890    0.1550    0.0000 H   0  0  0  0  0  0  0  0  0  0  0  0
    5.2690    0.7750    0.0000 H   0  0  0  0  0  0  0  0  0  0  0  0
    3.2690    0.7750    0.0000 H   0  0  0  0  0  0  0  0  0  0  0  0
    2.6490    0.1550    0.0000 H   0  0  0  0  0  0  0  0  0  0  0  0
    3.2690   -0.4650    0.0000 H   0  0  0  0  0  0  0  0  0  0  0  0
    5.6720   -1.0350    0.0000 H   0  0  0  0  0  0  0  0  0  0  0  0
    2.8660   -1.0350    0.0000 H   0  0  0  0  0  0  0  0  0  0  0  0
    2.8660    1.3450    0.0000 H   0  0  0  0  0  0  0  0  0  0  0  0
    5.6720    1.3450    0.0000 H   0  0  0  0  0  0  0  0  0  0  0  0
    5.6720   -2.6550    0.0000 H   0  0  0  0  0  0  0  0  0  0  0  0
    2.8660   -2.6550    0.0000 H   0  0  0  0  0  0  0  0  0  0  0  0
    2.8660    2.9650    0.0000 H   0  0  0  0  0  0  0  0  0  0  0  0
    5.6720    2.9650    0.0000 H   0  0  0  0  0  0  0  0  0  0  0  0
    3.1909   -3.7624    0.0000 H   0  0  0  0  0  0  0  0  0  0  0  0
    2.7924   -4.4527    0.0000 H   0  0  0  0  0  0  0  0  0  0  0  0
    5.3471    4.0724    0.0000 H   0  0  0  0  0  0  0  0  0  0  0  0
    5.7456    4.7627    0.0000 H   0  0  0  0  0  0  0  0  0  0  0  0
    3.4030   -5.9650    0.0000 H   0  0  0  0  0  0  0  0  0  0  0  0
    5.1350    6.2750    0.0000 H   0  0  0  0  0  0  0  0  0  0  0  0
    2.3249   -5.2624    0.0000 H   0  0  0  0  0  0  0  0  0  0  0  0
    1.9264   -5.9527    0.0000 H   0  0  0  0  0  0  0  0  0  0  0  0
    3.6584    6.2627    0.0000 H   0  0  0  0  0  0  0  0  0  0  0  0
    4.0569    5.5724    0.0000 H   0  0  0  0  0  0  0  0  0  0  0  0
    4.2690   -6.4650    0.0000 H   0  0  0  0  0  0  0  0  0  0  0  0
    6.0010    6.7750    0.0000 H   0  0  0  0  0  0  0  0  0  0  0  0
    2.0000   -7.1550    0.0000 H   0  0  0  0  0  0  0  0  0  0  0  0
  1 27  1  0  0  0  0
  2 20  1  0  0  0  0
  2 22  1  0  0  0  0
  3 21  1  0  0  0  0
  3 23  1  0  0  0  0
  4 24  1  0  0  0  0
  4 52  1  0  0  0  0
  5 25  1  0  0  0  0
  5 53  1  0  0  0  0
  6 26  1  0  0  0  0
  6 54  1  0  0  0  0
  7  8  1  0  0  0  0
  7  9  1  0  0  0  0
  7 10  1  0  0  0  0
  7 11  1  0  0  0  0
  8 12  2  0  0  0  0
  8 13  1  0  0  0  0
  9 14  2  0  0  0  0
  9 15  1  0  0  0  0
 10 28  1  0  0  0  0
 10 29  1  0  0  0  0
 10 30  1  0  0  0  0
 11 31  1  0  0  0  0
 11 32  1  0  0  0  0
 11 33  1  0  0  0  0
 12 16  1  0  0  0  0
 12 34  1  0  0  0  0
 13 17  2  0  0  0  0
 13 35  1  0  0  0  0
 14 18  1  0  0  0  0
 14 36  1  0  0  0  0
 15 19  2  0  0  0  0
 15 37  1  0  0  0  0
 16 20  2  0  0  0  0
 16 38  1  0  0  0  0
 17 20  1  0  0  0  0
 17 39  1  0  0  0  0
 18 21  2  0  0  0  0
 18 40  1  0  0  0  0
 19 21  1  0  0  0  0
 19 41  1  0  0  0  0
 22 24  1  0  0  0  0
 22 42  1  0  0  0  0
 22 43  1  0  0  0  0
 23 25  1  0  0  0  0
 23 44  1  0  0  0  0
 23 45  1  0  0  0  0
 24 26  1  0  0  0  0
 24 46  1  0  0  0  0
 25 27  1  0  0  0  0
 25 47  1  0  0  0  0
 26 48  1  0  0  0  0
 26 49  1  0  0  0  0
 27 50  1  0  0  0  0
 27 51  1  0  0  0  0
M  END
> <PUBCHEM_COMPOUND_CID>
4166922

> <PUBCHEM_COMPOUND_CANONICALIZED>
1

> <PUBCHEM_CACTVS_COMPLEXITY>
403

> <PUBCHEM_CACTVS_HBOND_ACCEPTOR>
5

> <PUBCHEM_CACTVS_HBOND_DONOR>
3

> <PUBCHEM_CACTVS_ROTATABLE_BOND>
10

> <PUBCHEM_CACTVS_SUBSKEYS>
AAADceB4OAAEAAAAAAAAAAAAAAAAAAAAAAAwYAAAAAAAAAABQAAAGgIACAAADhegmEIyBoAABgCAAiBCAAACCAAgIAAIiAAGC4gNNiKEMRqCeCClwBELqAeAwPAPoAAAAAAAAABAAAAAAAAAAAAAAAAAAA==

> <PUBCHEM_IUPAC_OPENEYE_NAME>
3-[4-[1-[4-(3-chloro-2-hydroxy-propoxy)phenyl]-1-methyl-ethyl]phenoxy]propane-1,2-diol

> <PUBCHEM_IUPAC_CAS_NAME>
3-[4-[2-[4-(3-chloro-2-hydroxypropoxy)phenyl]propan-2-yl]phenoxy]propane-1,2-diol

> <PUBCHEM_IUPAC_NAME_MARKUP>
3-[4-[2-[4-(3-chloro-2-hydroxypropoxy)phenyl]propan-2-yl]phenoxy]propane-1,2-diol

> <PUBCHEM_IUPAC_NAME>
3-[4-[2-[4-(3-chloro-2-hydroxypropoxy)phenyl]propan-2-yl]phenoxy]propane-1,2-diol

> <PUBCHEM_IUPAC_SYSTEMATIC_NAME>
3-[4-[2-[4-(3-chloranyl-2-oxidanyl-propoxy)phenyl]propan-2-yl]phenoxy]propane-1,2-diol

> <PUBCHEM_IUPAC_TRADITIONAL_NAME>
3-[4-[1-[4-(3-chloro-2-hydroxy-propoxy)phenyl]-1-methyl-ethyl]phenoxy]propane-1,2-diol

> <PUBCHEM_IUPAC_INCHI>
InChI=1S/C21H27ClO5/c1-21(2,15-3-7-19(8-4-15)26-13-17(24)11-22)16-5-9-20(10-6-16)27-14-18(25)12-23/h3-10,17-18,23-25H,11-14H2,1-2H3

> <PUBCHEM_IUPAC_INCHIKEY>
HDTYUHNZRYZEEB-UHFFFAOYSA-N

> <PUBCHEM_XLOGP3_AA>
3.3

> <PUBCHEM_EXACT_MASS>
394.1547017

> <PUBCHEM_MOLECULAR_FORMULA>
C21H27ClO5

> <PUBCHEM_MOLECULAR_WEIGHT>
394.9

> <PUBCHEM_SMILES>
CC(C)(C1=CC=C(C=C1)OCC(CO)O)C2=CC=C(C=C2)OCC(CCl)O

> <PUBCHEM_CONNECTIVITY_SMILES>
CC(C)(C1=CC=C(C=C1)OCC(CO)O)C2=CC=C(C=C2)OCC(CCl)O

> <PUBCHEM_CACTVS_TPSA>
79.2

> <PUBCHEM_MONOISOTOPIC_WEIGHT>
394.1547017

> <PUBCHEM_TOTAL_CHARGE>
0

> <PUBCHEM_HEAVY_ATOM_COUNT>
27

> <PUBCHEM_ATOM_DEF_STEREO_COUNT>
0

> <PUBCHEM_ATOM_UDEF_STEREO_COUNT>
2

> <PUBCHEM_BOND_DEF_STEREO_COUNT>
0

> <PUBCHEM_BOND_UDEF_STEREO_COUNT>
0

> <PUBCHEM_ISOTOPIC_ATOM_COUNT>
0

> <PUBCHEM_COMPONENT_COUNT>
1

> <PUBCHEM_CACTVS_TAUTO_COUNT>
-1

> <PUBCHEM_COORDINATE_TYPE>
1
5
255

> <PUBCHEM_BONDANNOTATIONS>
12  16  8
13  17  8
14  18  8
15  19  8
16  20  8
17  20  8
18  21  8
19  21  8
24  4  3
25  5  3
8  12  8
8  13  8
9  14  8
9  15  8

$$$$
