4168728
  -OEChem-05122609582D

102101  0     0  0  0  0  0  0999 V2000
   14.9904   -0.0950    0.0000 O   0  0  0  0  0  0  0  0  0  0  0  0
   18.4545   -0.0950    0.0000 O   0  0  0  0  0  0  0  0  0  0  0  0
   14.1244    1.4050    0.0000 O   0  0  0  0  0  0  0  0  0  0  0  0
   19.3205    1.4050    0.0000 O   0  0  0  0  0  0  0  0  0  0  0  0
   16.7224   -1.0950    0.0000 O   0  0  0  0  0  0  0  0  0  0  0  0
    8.0622   -0.0950    0.0000 C   0  0  0  0  0  0  0  0  0  0  0  0
   25.3827   -0.0950    0.0000 C   0  0  0  0  0  0  0  0  0  0  0  0
    7.1962    0.4050    0.0000 C   0  0  0  0  0  0  0  0  0  0  0  0
   26.2487    0.4050    0.0000 C   0  0  0  0  0  0  0  0  0  0  0  0
    8.9282    0.4050    0.0000 C   0  0  0  0  0  0  0  0  0  0  0  0
   24.5167    0.4050    0.0000 C   0  0  0  0  0  0  0  0  0  0  0  0
    6.3301   -0.0950    0.0000 C   0  0  0  0  0  0  0  0  0  0  0  0
   27.1147   -0.0950    0.0000 C   0  0  0  0  0  0  0  0  0  0  0  0
    9.7942   -0.0950    0.0000 C   0  0  0  0  0  0  0  0  0  0  0  0
   23.6506   -0.0950    0.0000 C   0  0  0  0  0  0  0  0  0  0  0  0
    5.4641    0.4050    0.0000 C   0  0  0  0  0  0  0  0  0  0  0  0
   27.9808    0.4050    0.0000 C   0  0  0  0  0  0  0  0  0  0  0  0
   10.6603    0.4050    0.0000 C   0  0  0  0  0  0  0  0  0  0  0  0
   22.7846    0.4050    0.0000 C   0  0  0  0  0  0  0  0  0  0  0  0
    4.5981   -0.0950    0.0000 C   0  0  0  0  0  0  0  0  0  0  0  0
   28.8468   -0.0950    0.0000 C   0  0  0  0  0  0  0  0  0  0  0  0
   11.5263   -0.0950    0.0000 C   0  0  0  0  0  0  0  0  0  0  0  0
   21.9186   -0.0950    0.0000 C   0  0  0  0  0  0  0  0  0  0  0  0
    3.7321    0.4050    0.0000 C   0  0  0  0  0  0  0  0  0  0  0  0
   29.7128    0.4050    0.0000 C   0  0  0  0  0  0  0  0  0  0  0  0
   12.3923    0.4050    0.0000 C   0  0  0  0  0  0  0  0  0  0  0  0
   21.0526    0.4050    0.0000 C   0  0  0  0  0  0  0  0  0  0  0  0
    2.8660   -0.0950    0.0000 C   0  0  0  0  0  0  0  0  0  0  0  0
   30.5788   -0.0950    0.0000 C   0  0  0  0  0  0  0  0  0  0  0  0
   13.2583   -0.0950    0.0000 C   0  0  0  0  0  0  0  0  0  0  0  0
   20.1865   -0.0950    0.0000 C   0  0  0  0  0  0  0  0  0  0  0  0
    2.0000    0.4050    0.0000 C   0  0  0  0  0  0  0  0  0  0  0  0
   31.4449    0.4050    0.0000 C   0  0  0  0  0  0  0  0  0  0  0  0
   14.1244    0.4050    0.0000 C   0  0  0  0  0  0  0  0  0  0  0  0
   19.3205    0.4050    0.0000 C   0  0  0  0  0  0  0  0  0  0  0  0
   16.7224   -0.0950    0.0000 C   0  0  0  0  0  0  0  0  0  0  0  0
   15.8564    0.4050    0.0000 C   0  0  0  0  0  0  0  0  0  0  0  0
   17.5885    0.4050    0.0000 C   0  0  0  0  0  0  0  0  0  0  0  0
    7.6637   -0.5699    0.0000 H   0  0  0  0  0  0  0  0  0  0  0  0
    8.4607   -0.5699    0.0000 H   0  0  0  0  0  0  0  0  0  0  0  0
   24.9842   -0.5699    0.0000 H   0  0  0  0  0  0  0  0  0  0  0  0
   25.7812   -0.5699    0.0000 H   0  0  0  0  0  0  0  0  0  0  0  0
    7.5947    0.8799    0.0000 H   0  0  0  0  0  0  0  0  0  0  0  0
    6.7976    0.8799    0.0000 H   0  0  0  0  0  0  0  0  0  0  0  0
   26.6472    0.8799    0.0000 H   0  0  0  0  0  0  0  0  0  0  0  0
   25.8502    0.8799    0.0000 H   0  0  0  0  0  0  0  0  0  0  0  0
    9.3267    0.8799    0.0000 H   0  0  0  0  0  0  0  0  0  0  0  0
    8.5297    0.8799    0.0000 H   0  0  0  0  0  0  0  0  0  0  0  0
   24.9152    0.8799    0.0000 H   0  0  0  0  0  0  0  0  0  0  0  0
   24.1181    0.8799    0.0000 H   0  0  0  0  0  0  0  0  0  0  0  0
    5.9316   -0.5699    0.0000 H   0  0  0  0  0  0  0  0  0  0  0  0
    6.7287   -0.5699    0.0000 H   0  0  0  0  0  0  0  0  0  0  0  0
   26.7162   -0.5699    0.0000 H   0  0  0  0  0  0  0  0  0  0  0  0
   27.5133   -0.5699    0.0000 H   0  0  0  0  0  0  0  0  0  0  0  0
    9.3957   -0.5699    0.0000 H   0  0  0  0  0  0  0  0  0  0  0  0
   10.1928   -0.5699    0.0000 H   0  0  0  0  0  0  0  0  0  0  0  0
   23.2521   -0.5699    0.0000 H   0  0  0  0  0  0  0  0  0  0  0  0
   24.0492   -0.5699    0.0000 H   0  0  0  0  0  0  0  0  0  0  0  0
    5.8626    0.8799    0.0000 H   0  0  0  0  0  0  0  0  0  0  0  0
    5.0656    0.8799    0.0000 H   0  0  0  0  0  0  0  0  0  0  0  0
   28.3793    0.8799    0.0000 H   0  0  0  0  0  0  0  0  0  0  0  0
   27.5822    0.8799    0.0000 H   0  0  0  0  0  0  0  0  0  0  0  0
   11.0588    0.8799    0.0000 H   0  0  0  0  0  0  0  0  0  0  0  0
   10.2617    0.8799    0.0000 H   0  0  0  0  0  0  0  0  0  0  0  0
   23.1831    0.8799    0.0000 H   0  0  0  0  0  0  0  0  0  0  0  0
   22.3861    0.8799    0.0000 H   0  0  0  0  0  0  0  0  0  0  0  0
    4.1996   -0.5699    0.0000 H   0  0  0  0  0  0  0  0  0  0  0  0
    4.9966   -0.5699    0.0000 H   0  0  0  0  0  0  0  0  0  0  0  0
   28.4483   -0.5699    0.0000 H   0  0  0  0  0  0  0  0  0  0  0  0
   29.2453   -0.5699    0.0000 H   0  0  0  0  0  0  0  0  0  0  0  0
   11.1278   -0.5699    0.0000 H   0  0  0  0  0  0  0  0  0  0  0  0
   11.9248   -0.5699    0.0000 H   0  0  0  0  0  0  0  0  0  0  0  0
   21.5201   -0.5699    0.0000 H   0  0  0  0  0  0  0  0  0  0  0  0
   22.3171   -0.5699    0.0000 H   0  0  0  0  0  0  0  0  0  0  0  0
    4.1306    0.8799    0.0000 H   0  0  0  0  0  0  0  0  0  0  0  0
    3.3335    0.8799    0.0000 H   0  0  0  0  0  0  0  0  0  0  0  0
   30.1113    0.8799    0.0000 H   0  0  0  0  0  0  0  0  0  0  0  0
   29.3143    0.8799    0.0000 H   0  0  0  0  0  0  0  0  0  0  0  0
   12.7908    0.8799    0.0000 H   0  0  0  0  0  0  0  0  0  0  0  0
   11.9938    0.8799    0.0000 H   0  0  0  0  0  0  0  0  0  0  0  0
   21.4511    0.8799    0.0000 H   0  0  0  0  0  0  0  0  0  0  0  0
   20.6540    0.8799    0.0000 H   0  0  0  0  0  0  0  0  0  0  0  0
    2.4675   -0.5699    0.0000 H   0  0  0  0  0  0  0  0  0  0  0  0
    3.2646   -0.5699    0.0000 H   0  0  0  0  0  0  0  0  0  0  0  0
   30.1803   -0.5699    0.0000 H   0  0  0  0  0  0  0  0  0  0  0  0
   30.9774   -0.5699    0.0000 H   0  0  0  0  0  0  0  0  0  0  0  0
   12.8598   -0.5699    0.0000 H   0  0  0  0  0  0  0  0  0  0  0  0
   13.6569   -0.5699    0.0000 H   0  0  0  0  0  0  0  0  0  0  0  0
   19.7880   -0.5699    0.0000 H   0  0  0  0  0  0  0  0  0  0  0  0
   20.5851   -0.5699    0.0000 H   0  0  0  0  0  0  0  0  0  0  0  0
    2.3100    0.9419    0.0000 H   0  0  0  0  0  0  0  0  0  0  0  0
    1.4631    0.7150    0.0000 H   0  0  0  0  0  0  0  0  0  0  0  0
    1.6900   -0.1319    0.0000 H   0  0  0  0  0  0  0  0  0  0  0  0
   31.7549   -0.1319    0.0000 H   0  0  0  0  0  0  0  0  0  0  0  0
   31.9818    0.7150    0.0000 H   0  0  0  0  0  0  0  0  0  0  0  0
   31.1349    0.9419    0.0000 H   0  0  0  0  0  0  0  0  0  0  0  0
   16.1855   -0.4050    0.0000 H   0  0  0  0  0  0  0  0  0  0  0  0
   16.2549    0.8799    0.0000 H   0  0  0  0  0  0  0  0  0  0  0  0
   15.4579    0.8799    0.0000 H   0  0  0  0  0  0  0  0  0  0  0  0
   17.9870    0.8799    0.0000 H   0  0  0  0  0  0  0  0  0  0  0  0
   17.1899    0.8799    0.0000 H   0  0  0  0  0  0  0  0  0  0  0  0
   16.1855   -1.4050    0.0000 H   0  0  0  0  0  0  0  0  0  0  0  0
  1 34  1  0  0  0  0
  1 37  1  0  0  0  0
  2 35  1  0  0  0  0
  2 38  1  0  0  0  0
  3 34  2  0  0  0  0
  4 35  2  0  0  0  0
  5 36  1  0  0  0  0
  5102  1  0  0  0  0
  6  8  1  0  0  0  0
  6 10  1  0  0  0  0
  6 39  1  0  0  0  0
  6 40  1  0  0  0  0
  7  9  1  0  0  0  0
  7 11  1  0  0  0  0
  7 41  1  0  0  0  0
  7 42  1  0  0  0  0
  8 12  1  0  0  0  0
  8 43  1  0  0  0  0
  8 44  1  0  0  0  0
  9 13  1  0  0  0  0
  9 45  1  0  0  0  0
  9 46  1  0  0  0  0
 10 14  1  0  0  0  0
 10 47  1  0  0  0  0
 10 48  1  0  0  0  0
 11 15  1  0  0  0  0
 11 49  1  0  0  0  0
 11 50  1  0  0  0  0
 12 16  1  0  0  0  0
 12 51  1  0  0  0  0
 12 52  1  0  0  0  0
 13 17  1  0  0  0  0
 13 53  1  0  0  0  0
 13 54  1  0  0  0  0
 14 18  1  0  0  0  0
 14 55  1  0  0  0  0
 14 56  1  0  0  0  0
 15 19  1  0  0  0  0
 15 57  1  0  0  0  0
 15 58  1  0  0  0  0
 16 20  1  0  0  0  0
 16 59  1  0  0  0  0
 16 60  1  0  0  0  0
 17 21  1  0  0  0  0
 17 61  1  0  0  0  0
 17 62  1  0  0  0  0
 18 22  1  0  0  0  0
 18 63  1  0  0  0  0
 18 64  1  0  0  0  0
 19 23  1  0  0  0  0
 19 65  1  0  0  0  0
 19 66  1  0  0  0  0
 20 24  1  0  0  0  0
 20 67  1  0  0  0  0
 20 68  1  0  0  0  0
 21 25  1  0  0  0  0
 21 69  1  0  0  0  0
 21 70  1  0  0  0  0
 22 26  1  0  0  0  0
 22 71  1  0  0  0  0
 22 72  1  0  0  0  0
 23 27  1  0  0  0  0
 23 73  1  0  0  0  0
 23 74  1  0  0  0  0
 24 28  1  0  0  0  0
 24 75  1  0  0  0  0
 24 76  1  0  0  0  0
 25 29  1  0  0  0  0
 25 77  1  0  0  0  0
 25 78  1  0  0  0  0
 26 30  1  0  0  0  0
 26 79  1  0  0  0  0
 26 80  1  0  0  0  0
 27 31  1  0  0  0  0
 27 81  1  0  0  0  0
 27 82  1  0  0  0  0
 28 32  1  0  0  0  0
 28 83  1  0  0  0  0
 28 84  1  0  0  0  0
 29 33  1  0  0  0  0
 29 85  1  0  0  0  0
 29 86  1  0  0  0  0
 30 34  1  0  0  0  0
 30 87  1  0  0  0  0
 30 88  1  0  0  0  0
 31 35  1  0  0  0  0
 31 89  1  0  0  0  0
 31 90  1  0  0  0  0
 32 91  1  0  0  0  0
 32 92  1  0  0  0  0
 32 93  1  0  0  0  0
 33 94  1  0  0  0  0
 33 95  1  0  0  0  0
 33 96  1  0  0  0  0
 36 37  1  0  0  0  0
 36 38  1  0  0  0  0
 36 97  1  0  0  0  0
 37 98  1  0  0  0  0
 37 99  1  0  0  0  0
 38100  1  0  0  0  0
 38101  1  0  0  0  0
M  END
> <PUBCHEM_COMPOUND_CID>
4168728

> <PUBCHEM_COMPOUND_CANONICALIZED>
1

> <PUBCHEM_CACTVS_COMPLEXITY>
464

> <PUBCHEM_CACTVS_HBOND_ACCEPTOR>
5

> <PUBCHEM_CACTVS_HBOND_DONOR>
1

> <PUBCHEM_CACTVS_ROTATABLE_BOND>
32

> <PUBCHEM_CACTVS_SUBSKEYS>
AAADcfB8OAAAAAAAAAAAAAAAAAAAAAAAAAAAAAAAAAAAAAAAAAAAGgAACAAACBSggAICCAAABgAIAACQCAAAAAAAAAAAAAEAAAABEBIAAAACAAAFAAADAAGIyKCAAAAAAAAAAAAAAAAAAAAAAAAAAAAAAA==

> <PUBCHEM_IUPAC_OPENEYE_NAME>
(2-hydroxy-3-pentadecanoyloxy-propyl) pentadecanoate

> <PUBCHEM_IUPAC_CAS_NAME>
pentadecanoic acid [2-hydroxy-3-(1-oxopentadecoxy)propyl] ester

> <PUBCHEM_IUPAC_NAME_MARKUP>
(2-hydroxy-3-pentadecanoyloxypropyl) pentadecanoate

> <PUBCHEM_IUPAC_NAME>
(2-hydroxy-3-pentadecanoyloxypropyl) pentadecanoate

> <PUBCHEM_IUPAC_SYSTEMATIC_NAME>
(2-oxidanyl-3-pentadecanoyloxy-propyl) pentadecanoate

> <PUBCHEM_IUPAC_TRADITIONAL_NAME>
pentadecanoic acid (2-hydroxy-3-pentadecanoyloxy-propyl) ester

> <PUBCHEM_IUPAC_INCHI>
InChI=1S/C33H64O5/c1-3-5-7-9-11-13-15-17-19-21-23-25-27-32(35)37-29-31(34)30-38-33(36)28-26-24-22-20-18-16-14-12-10-8-6-4-2/h31,34H,3-30H2,1-2H3

> <PUBCHEM_IUPAC_INCHIKEY>
HZEBMMLXOCVJNI-UHFFFAOYSA-N

> <PUBCHEM_XLOGP3_AA>
13

> <PUBCHEM_EXACT_MASS>
540.47537514

> <PUBCHEM_MOLECULAR_FORMULA>
C33H64O5

> <PUBCHEM_MOLECULAR_WEIGHT>
540.9

> <PUBCHEM_SMILES>
CCCCCCCCCCCCCCC(=O)OCC(COC(=O)CCCCCCCCCCCCCC)O

> <PUBCHEM_CONNECTIVITY_SMILES>
CCCCCCCCCCCCCCC(=O)OCC(COC(=O)CCCCCCCCCCCCCC)O

> <PUBCHEM_CACTVS_TPSA>
72.8

> <PUBCHEM_MONOISOTOPIC_WEIGHT>
540.47537514

> <PUBCHEM_TOTAL_CHARGE>
0

> <PUBCHEM_HEAVY_ATOM_COUNT>
38

> <PUBCHEM_ATOM_DEF_STEREO_COUNT>
0

> <PUBCHEM_ATOM_UDEF_STEREO_COUNT>
0

> <PUBCHEM_BOND_DEF_STEREO_COUNT>
0

> <PUBCHEM_BOND_UDEF_STEREO_COUNT>
0

> <PUBCHEM_ISOTOPIC_ATOM_COUNT>
0

> <PUBCHEM_COMPONENT_COUNT>
1

> <PUBCHEM_CACTVS_TAUTO_COUNT>
-1

> <PUBCHEM_COORDINATE_TYPE>
1
5
255

$$$$
