4199499
  -OEChem-01092608252D

 36 36  0     1  0  0  0  0  0999 V2000
    3.3660    1.6891    0.0000 O   0  0  0  0  0  0  0  0  0  0  0  0
    2.8660    0.1502    0.0000 N   0  0  3  0  0  0  0  0  0  0  0  0
    3.6750    0.7380    0.0000 C   0  0  3  0  0  0  0  0  0  0  0  0
    4.2628   -0.0710    0.0000 C   0  0  0  0  0  0  0  0  0  0  0  0
    2.0570    0.7380    0.0000 C   0  0  0  0  0  0  0  0  0  0  0  0
    5.2574    0.0335    0.0000 C   0  0  0  0  0  0  0  0  0  0  0  0
    2.3660    1.6891    0.0000 C   0  0  0  0  0  0  0  0  0  0  0  0
    4.6261    1.0470    0.0000 C   0  0  0  0  0  0  0  0  0  0  0  0
    2.8660   -0.8498    0.0000 C   0  0  0  0  0  0  0  0  0  0  0  0
    5.8451   -0.7755    0.0000 C   0  0  0  0  0  0  0  0  0  0  0  0
    2.0000   -1.3498    0.0000 C   0  0  0  0  0  0  0  0  0  0  0  0
    6.8397   -0.6710    0.0000 C   0  0  0  0  0  0  0  0  0  0  0  0
    5.4384   -1.6891    0.0000 C   0  0  0  0  0  0  0  0  0  0  0  0
    3.7056   -0.3428    0.0000 H   0  0  0  0  0  0  0  0  0  0  0  0
    4.4337   -0.6670    0.0000 H   0  0  0  0  0  0  0  0  0  0  0  0
    1.4906    0.9902    0.0000 H   0  0  0  0  0  0  0  0  0  0  0  0
    1.7470    0.2011    0.0000 H   0  0  0  0  0  0  0  0  0  0  0  0
    5.8146    0.3053    0.0000 H   0  0  0  0  0  0  0  0  0  0  0  0
    5.0865    0.6295    0.0000 H   0  0  0  0  0  0  0  0  0  0  0  0
    2.4308    2.3057    0.0000 H   0  0  0  0  0  0  0  0  0  0  0  0
    1.7596    1.8180    0.0000 H   0  0  0  0  0  0  0  0  0  0  0  0
    4.8177    0.4574    0.0000 H   0  0  0  0  0  0  0  0  0  0  0  0
    5.2158    1.2386    0.0000 H   0  0  0  0  0  0  0  0  0  0  0  0
    4.4345    1.6367    0.0000 H   0  0  0  0  0  0  0  0  0  0  0  0
    3.0781   -1.4324    0.0000 H   0  0  0  0  0  0  0  0  0  0  0  0
    3.4766   -0.7421    0.0000 H   0  0  0  0  0  0  0  0  0  0  0  0
    5.2285   -0.8403    0.0000 H   0  0  0  0  0  0  0  0  0  0  0  0
    1.6900   -0.8129    0.0000 H   0  0  0  0  0  0  0  0  0  0  0  0
    1.4631   -1.6598    0.0000 H   0  0  0  0  0  0  0  0  0  0  0  0
    2.3100   -1.8867    0.0000 H   0  0  0  0  0  0  0  0  0  0  0  0
    6.9045   -1.2876    0.0000 H   0  0  0  0  0  0  0  0  0  0  0  0
    7.4563   -0.6062    0.0000 H   0  0  0  0  0  0  0  0  0  0  0  0
    6.7749   -0.0544    0.0000 H   0  0  0  0  0  0  0  0  0  0  0  0
    4.8720   -1.4369    0.0000 H   0  0  0  0  0  0  0  0  0  0  0  0
    5.1862   -2.2555    0.0000 H   0  0  0  0  0  0  0  0  0  0  0  0
    6.0048   -1.9412    0.0000 H   0  0  0  0  0  0  0  0  0  0  0  0
  1  3  1  0  0  0  0
  1  7  1  0  0  0  0
  2  3  1  0  0  0  0
  2  5  1  0  0  0  0
  2  9  1  0  0  0  0
  3  4  1  0  0  0  0
  3  8  1  0  0  0  0
  4  6  1  0  0  0  0
  4 14  1  0  0  0  0
  4 15  1  0  0  0  0
  5  7  1  0  0  0  0
  5 16  1  0  0  0  0
  5 17  1  0  0  0  0
  6 10  1  0  0  0  0
  6 18  1  0  0  0  0
  6 19  1  0  0  0  0
  7 20  1  0  0  0  0
  7 21  1  0  0  0  0
  8 22  1  0  0  0  0
  8 23  1  0  0  0  0
  8 24  1  0  0  0  0
  9 11  1  0  0  0  0
  9 25  1  0  0  0  0
  9 26  1  0  0  0  0
 10 12  1  0  0  0  0
 10 13  1  0  0  0  0
 10 27  1  0  0  0  0
 11 28  1  0  0  0  0
 11 29  1  0  0  0  0
 11 30  1  0  0  0  0
 12 31  1  0  0  0  0
 12 32  1  0  0  0  0
 12 33  1  0  0  0  0
 13 34  1  0  0  0  0
 13 35  1  0  0  0  0
 13 36  1  0  0  0  0
M  END
> <PUBCHEM_COMPOUND_CID>
4199499

> <PUBCHEM_COMPOUND_CANONICALIZED>
1

> <PUBCHEM_CACTVS_COMPLEXITY>
158

> <PUBCHEM_CACTVS_HBOND_ACCEPTOR>
2

> <PUBCHEM_CACTVS_HBOND_DONOR>
0

> <PUBCHEM_CACTVS_ROTATABLE_BOND>
4

> <PUBCHEM_CACTVS_SUBSKEYS>
AAADceByIAAAAAAAAAAAAAAAAAAAAWAAAAAAAAAAAAAAAAAAAAAAHgAAAAAADQzhgAYCAAMABAAAAAAAAAAAAAAAAAAAAAAIAAACAAIAgAAPAAAEAACQAAGQAAAMAAAAAAAAAAAAAAAAAAAAAAAAAAAAAA==

> <PUBCHEM_IUPAC_OPENEYE_NAME>
3-ethyl-2-isopentyl-2-methyl-oxazolidine

> <PUBCHEM_IUPAC_CAS_NAME>
3-ethyl-2-methyl-2-(3-methylbutyl)oxazolidine

> <PUBCHEM_IUPAC_NAME_MARKUP>
3-ethyl-2-methyl-2-(3-methylbutyl)-1,3-oxazolidine

> <PUBCHEM_IUPAC_NAME>
3-ethyl-2-methyl-2-(3-methylbutyl)-1,3-oxazolidine

> <PUBCHEM_IUPAC_SYSTEMATIC_NAME>
3-ethyl-2-methyl-2-(3-methylbutyl)-1,3-oxazolidine

> <PUBCHEM_IUPAC_TRADITIONAL_NAME>
3-ethyl-2-isoamyl-2-methyl-oxazolidine

> <PUBCHEM_IUPAC_INCHI>
InChI=1S/C11H23NO/c1-5-12-8-9-13-11(12,4)7-6-10(2)3/h10H,5-9H2,1-4H3

> <PUBCHEM_IUPAC_INCHIKEY>
LIKGLDATLCWEDN-UHFFFAOYSA-N

> <PUBCHEM_XLOGP3_AA>
2.6

> <PUBCHEM_EXACT_MASS>
185.177964357

> <PUBCHEM_MOLECULAR_FORMULA>
C11H23NO

> <PUBCHEM_MOLECULAR_WEIGHT>
185.31

> <PUBCHEM_SMILES>
CCN1CCOC1(C)CCC(C)C

> <PUBCHEM_CONNECTIVITY_SMILES>
CCN1CCOC1(C)CCC(C)C

> <PUBCHEM_CACTVS_TPSA>
12.5

> <PUBCHEM_MONOISOTOPIC_WEIGHT>
185.177964357

> <PUBCHEM_TOTAL_CHARGE>
0

> <PUBCHEM_HEAVY_ATOM_COUNT>
13

> <PUBCHEM_ATOM_DEF_STEREO_COUNT>
0

> <PUBCHEM_ATOM_UDEF_STEREO_COUNT>
1

> <PUBCHEM_BOND_DEF_STEREO_COUNT>
0

> <PUBCHEM_BOND_UDEF_STEREO_COUNT>
0

> <PUBCHEM_ISOTOPIC_ATOM_COUNT>
0

> <PUBCHEM_COMPONENT_COUNT>
1

> <PUBCHEM_CACTVS_TAUTO_COUNT>
-1

> <PUBCHEM_COORDINATE_TYPE>
1
5
255

> <PUBCHEM_BONDANNOTATIONS>
3  8  3

$$$$
