421738
  -OEChem-05122609222D

 23 24  0     0  0  0  0  0  0999 V2000
    7.2641   -0.0173    0.0000 O   0  0  0  0  0  0  0  0  0  0  0  0
    6.3981   -1.5173    0.0000 O   0  0  0  0  0  0  0  0  0  0  0  0
    4.6660   -0.5173    0.0000 N   0  0  0  0  0  0  0  0  0  0  0  0
    3.8000    0.9827    0.0000 C   0  0  0  0  0  0  0  0  0  0  0  0
    3.8000   -0.0173    0.0000 C   0  0  0  0  0  0  0  0  0  0  0  0
    4.6660    1.4827    0.0000 C   0  0  0  0  0  0  0  0  0  0  0  0
    2.9061    1.5173    0.0000 C   0  0  0  0  0  0  0  0  0  0  0  0
    5.5321   -0.0173    0.0000 C   0  0  0  0  0  0  0  0  0  0  0  0
    2.9061   -0.5520    0.0000 C   0  0  0  0  0  0  0  0  0  0  0  0
    5.5321    0.9827    0.0000 C   0  0  0  0  0  0  0  0  0  0  0  0
    2.0000    1.0035    0.0000 C   0  0  0  0  0  0  0  0  0  0  0  0
    2.0000   -0.0381    0.0000 C   0  0  0  0  0  0  0  0  0  0  0  0
    6.3981   -0.5173    0.0000 C   0  0  0  0  0  0  0  0  0  0  0  0
    8.1301   -0.5173    0.0000 C   0  0  0  0  0  0  0  0  0  0  0  0
    4.6660    2.1027    0.0000 H   0  0  0  0  0  0  0  0  0  0  0  0
    2.9132    2.1373    0.0000 H   0  0  0  0  0  0  0  0  0  0  0  0
    6.0690    1.2927    0.0000 H   0  0  0  0  0  0  0  0  0  0  0  0
    2.9132   -1.1720    0.0000 H   0  0  0  0  0  0  0  0  0  0  0  0
    1.4643    1.3156    0.0000 H   0  0  0  0  0  0  0  0  0  0  0  0
    1.4643   -0.3502    0.0000 H   0  0  0  0  0  0  0  0  0  0  0  0
    7.8201   -1.0543    0.0000 H   0  0  0  0  0  0  0  0  0  0  0  0
    8.6671   -0.8273    0.0000 H   0  0  0  0  0  0  0  0  0  0  0  0
    8.4401    0.0196    0.0000 H   0  0  0  0  0  0  0  0  0  0  0  0
  1 13  1  0  0  0  0
  1 14  1  0  0  0  0
  2 13  2  0  0  0  0
  3  5  1  0  0  0  0
  3  8  2  0  0  0  0
  4  5  1  0  0  0  0
  4  6  1  0  0  0  0
  4  7  2  0  0  0  0
  5  9  2  0  0  0  0
  6 10  2  0  0  0  0
  6 15  1  0  0  0  0
  7 11  1  0  0  0  0
  7 16  1  0  0  0  0
  8 10  1  0  0  0  0
  8 13  1  0  0  0  0
  9 12  1  0  0  0  0
  9 18  1  0  0  0  0
 10 17  1  0  0  0  0
 11 12  2  0  0  0  0
 11 19  1  0  0  0  0
 12 20  1  0  0  0  0
 14 21  1  0  0  0  0
 14 22  1  0  0  0  0
 14 23  1  0  0  0  0
M  END
> <PUBCHEM_COMPOUND_CID>
421738

> <PUBCHEM_COMPOUND_CANONICALIZED>
1

> <PUBCHEM_CACTVS_COMPLEXITY>
217

> <PUBCHEM_CACTVS_HBOND_ACCEPTOR>
3

> <PUBCHEM_CACTVS_HBOND_DONOR>
0

> <PUBCHEM_CACTVS_ROTATABLE_BOND>
2

> <PUBCHEM_CACTVS_SUBSKEYS>
AAADccByMAAAAAAAAAAAAAAAAAAAAAAAAAA8QAAAAAAAAACx8AAAHgAAAAAADAiBngIyyPIIFACoAyTyTASCgCAnAiAImCGwbNgKJvLAtbmFMQhkwAHY6YeYyLCOAAAAAAACAAAAAAAAAAQAAAAAAAAAAA==

> <PUBCHEM_IUPAC_OPENEYE_NAME>
methyl quinoline-2-carboxylate

> <PUBCHEM_IUPAC_CAS_NAME>
2-quinolinecarboxylic acid methyl ester

> <PUBCHEM_IUPAC_NAME_MARKUP>
methyl quinoline-2-carboxylate

> <PUBCHEM_IUPAC_NAME>
methyl quinoline-2-carboxylate

> <PUBCHEM_IUPAC_SYSTEMATIC_NAME>
methyl quinoline-2-carboxylate

> <PUBCHEM_IUPAC_TRADITIONAL_NAME>
quinaldic acid methyl ester

> <PUBCHEM_IUPAC_INCHI>
InChI=1S/C11H9NO2/c1-14-11(13)10-7-6-8-4-2-3-5-9(8)12-10/h2-7H,1H3

> <PUBCHEM_IUPAC_INCHIKEY>
CILJSZLWPHTUIP-UHFFFAOYSA-N

> <PUBCHEM_XLOGP3>
1.9

> <PUBCHEM_EXACT_MASS>
187.063328530

> <PUBCHEM_MOLECULAR_FORMULA>
C11H9NO2

> <PUBCHEM_MOLECULAR_WEIGHT>
187.19

> <PUBCHEM_SMILES>
COC(=O)C1=NC2=CC=CC=C2C=C1

> <PUBCHEM_CONNECTIVITY_SMILES>
COC(=O)C1=NC2=CC=CC=C2C=C1

> <PUBCHEM_CACTVS_TPSA>
39.2

> <PUBCHEM_MONOISOTOPIC_WEIGHT>
187.063328530

> <PUBCHEM_TOTAL_CHARGE>
0

> <PUBCHEM_HEAVY_ATOM_COUNT>
14

> <PUBCHEM_ATOM_DEF_STEREO_COUNT>
0

> <PUBCHEM_ATOM_UDEF_STEREO_COUNT>
0

> <PUBCHEM_BOND_DEF_STEREO_COUNT>
0

> <PUBCHEM_BOND_UDEF_STEREO_COUNT>
0

> <PUBCHEM_ISOTOPIC_ATOM_COUNT>
0

> <PUBCHEM_COMPONENT_COUNT>
1

> <PUBCHEM_CACTVS_TAUTO_COUNT>
-1

> <PUBCHEM_COORDINATE_TYPE>
1
5
255

> <PUBCHEM_BONDANNOTATIONS>
11  12  8
3  5  8
3  8  8
4  5  8
4  6  8
4  7  8
5  9  8
6  10  8
7  11  8
8  10  8
9  12  8

$$$$
