43031
  -OEChem-01092608282D

108113  0     0  0  0  0  0  0999 V2000
    5.4641   -1.2500    0.0000 S   0  0  0  0  0  0  0  0  0  0  0  0
    9.7942    1.2500    0.0000 S   0  0  0  0  0  0  0  0  0  0  0  0
    7.1962   -9.2500    0.0000 O   0  0  0  0  0  0  0  0  0  0  0  0
   10.6603   -9.2500    0.0000 O   0  0  0  0  0  0  0  0  0  0  0  0
    8.0622    9.2500    0.0000 O   0  0  0  0  0  0  0  0  0  0  0  0
    4.5981    9.2500    0.0000 O   0  0  0  0  0  0  0  0  0  0  0  0
    4.5981   -0.7500    0.0000 O   0  0  0  0  0  0  0  0  0  0  0  0
   10.6603    0.7500    0.0000 O   0  0  0  0  0  0  0  0  0  0  0  0
    4.9641   -2.1160    0.0000 O   0  0  0  0  0  0  0  0  0  0  0  0
    5.9641   -0.3840    0.0000 O   0  0  0  0  0  0  0  0  0  0  0  0
   10.2942    2.1160    0.0000 O   0  0  0  0  0  0  0  0  0  0  0  0
    9.2942    0.3840    0.0000 O   0  0  0  0  0  0  0  0  0  0  0  0
    8.9282   -7.2500    0.0000 N   0  0  0  0  0  0  0  0  0  0  0  0
    6.3301    7.2500    0.0000 N   0  0  0  0  0  0  0  0  0  0  0  0
    7.1962   -4.2500    0.0000 N   0  0  0  0  0  0  0  0  0  0  0  0
    8.0622    4.2500    0.0000 N   0  0  0  0  0  0  0  0  0  0  0  0
    8.0622   -5.7500    0.0000 N   0  0  0  0  0  0  0  0  0  0  0  0
    7.1962    5.7500    0.0000 N   0  0  0  0  0  0  0  0  0  0  0  0
    9.7942   -5.7500    0.0000 N   0  0  0  0  0  0  0  0  0  0  0  0
    5.4641    5.7500    0.0000 N   0  0  0  0  0  0  0  0  0  0  0  0
    8.9282   -4.2500    0.0000 N   0  0  0  0  0  0  0  0  0  0  0  0
    6.3301    4.2500    0.0000 N   0  0  0  0  0  0  0  0  0  0  0  0
   10.6603   -4.2500    0.0000 N   0  0  0  0  0  0  0  0  0  0  0  0
    4.5981    4.2500    0.0000 N   0  0  0  0  0  0  0  0  0  0  0  0
    8.0622   -7.7500    0.0000 C   0  0  0  0  0  0  0  0  0  0  0  0
    9.7942   -7.7500    0.0000 C   0  0  0  0  0  0  0  0  0  0  0  0
    7.1962    7.7500    0.0000 C   0  0  0  0  0  0  0  0  0  0  0  0
    5.4641    7.7500    0.0000 C   0  0  0  0  0  0  0  0  0  0  0  0
    7.1962   -1.2500    0.0000 C   0  0  0  0  0  0  0  0  0  0  0  0
    8.0622    1.2500    0.0000 C   0  0  0  0  0  0  0  0  0  0  0  0
    6.3301   -1.7500    0.0000 C   0  0  0  0  0  0  0  0  0  0  0  0
    8.9282    1.7500    0.0000 C   0  0  0  0  0  0  0  0  0  0  0  0
    7.1962   -3.2500    0.0000 C   0  0  0  0  0  0  0  0  0  0  0  0
    8.0622    3.2500    0.0000 C   0  0  0  0  0  0  0  0  0  0  0  0
    8.9282   -6.2500    0.0000 C   0  0  0  0  0  0  0  0  0  0  0  0
    6.3301    6.2500    0.0000 C   0  0  0  0  0  0  0  0  0  0  0  0
    6.3301   -2.7500    0.0000 C   0  0  0  0  0  0  0  0  0  0  0  0
    8.9282    2.7500    0.0000 C   0  0  0  0  0  0  0  0  0  0  0  0
    7.1962   -0.2500    0.0000 C   0  0  0  0  0  0  0  0  0  0  0  0
    8.0622    0.2500    0.0000 C   0  0  0  0  0  0  0  0  0  0  0  0
    8.0622   -1.7500    0.0000 C   0  0  0  0  0  0  0  0  0  0  0  0
    7.1962    1.7500    0.0000 C   0  0  0  0  0  0  0  0  0  0  0  0
    8.0622   -2.7500    0.0000 C   0  0  0  0  0  0  0  0  0  0  0  0
    7.1962    2.7500    0.0000 C   0  0  0  0  0  0  0  0  0  0  0  0
    8.0622   -8.7500    0.0000 C   0  0  0  0  0  0  0  0  0  0  0  0
    9.7942   -8.7500    0.0000 C   0  0  0  0  0  0  0  0  0  0  0  0
    7.1962    8.7500    0.0000 C   0  0  0  0  0  0  0  0  0  0  0  0
    5.4641    8.7500    0.0000 C   0  0  0  0  0  0  0  0  0  0  0  0
    8.0622   -4.7500    0.0000 C   0  0  0  0  0  0  0  0  0  0  0  0
    7.1962    4.7500    0.0000 C   0  0  0  0  0  0  0  0  0  0  0  0
    9.7942   -4.7500    0.0000 C   0  0  0  0  0  0  0  0  0  0  0  0
    5.4641    4.7500    0.0000 C   0  0  0  0  0  0  0  0  0  0  0  0
   11.5263   -4.7500    0.0000 C   0  0  0  0  0  0  0  0  0  0  0  0
    3.7321    4.7500    0.0000 C   0  0  0  0  0  0  0  0  0  0  0  0
   12.3923   -4.2500    0.0000 C   0  0  0  0  0  0  0  0  0  0  0  0
    2.8660    4.2500    0.0000 C   0  0  0  0  0  0  0  0  0  0  0  0
   11.5263   -5.7500    0.0000 C   0  0  0  0  0  0  0  0  0  0  0  0
    3.7321    5.7500    0.0000 C   0  0  0  0  0  0  0  0  0  0  0  0
   13.2583   -4.7500    0.0000 C   0  0  0  0  0  0  0  0  0  0  0  0
    2.0000    4.7500    0.0000 C   0  0  0  0  0  0  0  0  0  0  0  0
   12.3923   -6.2500    0.0000 C   0  0  0  0  0  0  0  0  0  0  0  0
    2.8660    6.2500    0.0000 C   0  0  0  0  0  0  0  0  0  0  0  0
   13.2583   -5.7500    0.0000 C   0  0  0  0  0  0  0  0  0  0  0  0
    2.0000    5.7500    0.0000 C   0  0  0  0  0  0  0  0  0  0  0  0
    7.8501   -7.1674    0.0000 H   0  0  0  0  0  0  0  0  0  0  0  0
    7.4516   -7.8577    0.0000 H   0  0  0  0  0  0  0  0  0  0  0  0
   10.4048   -7.8577    0.0000 H   0  0  0  0  0  0  0  0  0  0  0  0
   10.0063   -7.1674    0.0000 H   0  0  0  0  0  0  0  0  0  0  0  0
    7.4082    7.1674    0.0000 H   0  0  0  0  0  0  0  0  0  0  0  0
    7.8067    7.8577    0.0000 H   0  0  0  0  0  0  0  0  0  0  0  0
    4.8535    7.8577    0.0000 H   0  0  0  0  0  0  0  0  0  0  0  0
    5.2521    7.1674    0.0000 H   0  0  0  0  0  0  0  0  0  0  0  0
    5.7932   -3.0600    0.0000 H   0  0  0  0  0  0  0  0  0  0  0  0
    9.4651    3.0600    0.0000 H   0  0  0  0  0  0  0  0  0  0  0  0
    6.6592    0.0600    0.0000 H   0  0  0  0  0  0  0  0  0  0  0  0
    8.5991   -0.0600    0.0000 H   0  0  0  0  0  0  0  0  0  0  0  0
    8.5991   -1.4400    0.0000 H   0  0  0  0  0  0  0  0  0  0  0  0
    6.6592    1.4400    0.0000 H   0  0  0  0  0  0  0  0  0  0  0  0
    8.5991   -3.0600    0.0000 H   0  0  0  0  0  0  0  0  0  0  0  0
    6.6592    3.0600    0.0000 H   0  0  0  0  0  0  0  0  0  0  0  0
    8.2742   -9.3326    0.0000 H   0  0  0  0  0  0  0  0  0  0  0  0
    8.6728   -8.6423    0.0000 H   0  0  0  0  0  0  0  0  0  0  0  0
    9.1837   -8.6423    0.0000 H   0  0  0  0  0  0  0  0  0  0  0  0
    9.5822   -9.3326    0.0000 H   0  0  0  0  0  0  0  0  0  0  0  0
    6.9841    9.3326    0.0000 H   0  0  0  0  0  0  0  0  0  0  0  0
    6.5856    8.6423    0.0000 H   0  0  0  0  0  0  0  0  0  0  0  0
    6.0747    8.6423    0.0000 H   0  0  0  0  0  0  0  0  0  0  0  0
    5.6762    9.3326    0.0000 H   0  0  0  0  0  0  0  0  0  0  0  0
    6.6592   -4.5600    0.0000 H   0  0  0  0  0  0  0  0  0  0  0  0
    8.5991    4.5600    0.0000 H   0  0  0  0  0  0  0  0  0  0  0  0
   10.6603   -3.6300    0.0000 H   0  0  0  0  0  0  0  0  0  0  0  0
    4.5981    3.6300    0.0000 H   0  0  0  0  0  0  0  0  0  0  0  0
    7.1962   -9.8700    0.0000 H   0  0  0  0  0  0  0  0  0  0  0  0
   10.6603   -9.8700    0.0000 H   0  0  0  0  0  0  0  0  0  0  0  0
    8.0622    9.8700    0.0000 H   0  0  0  0  0  0  0  0  0  0  0  0
    4.5981    9.8700    0.0000 H   0  0  0  0  0  0  0  0  0  0  0  0
    4.0611   -1.0600    0.0000 H   0  0  0  0  0  0  0  0  0  0  0  0
   11.1972    1.0600    0.0000 H   0  0  0  0  0  0  0  0  0  0  0  0
   12.3923   -3.6300    0.0000 H   0  0  0  0  0  0  0  0  0  0  0  0
    2.8660    3.6300    0.0000 H   0  0  0  0  0  0  0  0  0  0  0  0
   10.9893   -6.0600    0.0000 H   0  0  0  0  0  0  0  0  0  0  0  0
    4.2690    6.0600    0.0000 H   0  0  0  0  0  0  0  0  0  0  0  0
   13.7953   -4.4400    0.0000 H   0  0  0  0  0  0  0  0  0  0  0  0
    1.4631    4.4400    0.0000 H   0  0  0  0  0  0  0  0  0  0  0  0
   12.3923   -6.8700    0.0000 H   0  0  0  0  0  0  0  0  0  0  0  0
    2.8660    6.8700    0.0000 H   0  0  0  0  0  0  0  0  0  0  0  0
   13.7953   -6.0600    0.0000 H   0  0  0  0  0  0  0  0  0  0  0  0
    1.4631    6.0600    0.0000 H   0  0  0  0  0  0  0  0  0  0  0  0
  1  7  1  0  0  0  0
  1  9  2  0  0  0  0
  1 10  2  0  0  0  0
  1 31  1  0  0  0  0
  2  8  1  0  0  0  0
  2 11  2  0  0  0  0
  2 12  2  0  0  0  0
  2 32  1  0  0  0  0
  3 45  1  0  0  0  0
  3 93  1  0  0  0  0
  4 46  1  0  0  0  0
  4 94  1  0  0  0  0
  5 47  1  0  0  0  0
  5 95  1  0  0  0  0
  6 48  1  0  0  0  0
  6 96  1  0  0  0  0
  7 97  1  0  0  0  0
  8 98  1  0  0  0  0
 13 25  1  0  0  0  0
 13 26  1  0  0  0  0
 13 35  1  0  0  0  0
 14 27  1  0  0  0  0
 14 28  1  0  0  0  0
 14 36  1  0  0  0  0
 15 33  1  0  0  0  0
 15 49  1  0  0  0  0
 15 89  1  0  0  0  0
 16 34  1  0  0  0  0
 16 50  1  0  0  0  0
 16 90  1  0  0  0  0
 17 35  1  0  0  0  0
 17 49  2  0  0  0  0
 18 36  1  0  0  0  0
 18 50  2  0  0  0  0
 19 35  2  0  0  0  0
 19 51  1  0  0  0  0
 20 36  2  0  0  0  0
 20 52  1  0  0  0  0
 21 49  1  0  0  0  0
 21 51  2  0  0  0  0
 22 50  1  0  0  0  0
 22 52  2  0  0  0  0
 23 51  1  0  0  0  0
 23 53  1  0  0  0  0
 23 91  1  0  0  0  0
 24 52  1  0  0  0  0
 24 54  1  0  0  0  0
 24 92  1  0  0  0  0
 25 45  1  0  0  0  0
 25 65  1  0  0  0  0
 25 66  1  0  0  0  0
 26 46  1  0  0  0  0
 26 67  1  0  0  0  0
 26 68  1  0  0  0  0
 27 47  1  0  0  0  0
 27 69  1  0  0  0  0
 27 70  1  0  0  0  0
 28 48  1  0  0  0  0
 28 71  1  0  0  0  0
 28 72  1  0  0  0  0
 29 31  2  0  0  0  0
 29 39  1  0  0  0  0
 29 41  1  0  0  0  0
 30 32  2  0  0  0  0
 30 40  1  0  0  0  0
 30 42  1  0  0  0  0
 31 37  1  0  0  0  0
 32 38  1  0  0  0  0
 33 37  2  0  0  0  0
 33 43  1  0  0  0  0
 34 38  2  0  0  0  0
 34 44  1  0  0  0  0
 37 73  1  0  0  0  0
 38 74  1  0  0  0  0
 39 40  2  3  0  0  0
 39 75  1  0  0  0  0
 40 76  1  0  0  0  0
 41 43  2  0  0  0  0
 41 77  1  0  0  0  0
 42 44  2  0  0  0  0
 42 78  1  0  0  0  0
 43 79  1  0  0  0  0
 44 80  1  0  0  0  0
 45 81  1  0  0  0  0
 45 82  1  0  0  0  0
 46 83  1  0  0  0  0
 46 84  1  0  0  0  0
 47 85  1  0  0  0  0
 47 86  1  0  0  0  0
 48 87  1  0  0  0  0
 48 88  1  0  0  0  0
 53 55  2  0  0  0  0
 53 57  1  0  0  0  0
 54 56  2  0  0  0  0
 54 58  1  0  0  0  0
 55 59  1  0  0  0  0
 55 99  1  0  0  0  0
 56 60  1  0  0  0  0
 56100  1  0  0  0  0
 57 61  2  0  0  0  0
 57101  1  0  0  0  0
 58 62  2  0  0  0  0
 58102  1  0  0  0  0
 59 63  2  0  0  0  0
 59103  1  0  0  0  0
 60 64  2  0  0  0  0
 60104  1  0  0  0  0
 61 63  1  0  0  0  0
 61105  1  0  0  0  0
 62 64  1  0  0  0  0
 62106  1  0  0  0  0
 63107  1  0  0  0  0
 64108  1  0  0  0  0
M  END
> <PUBCHEM_COMPOUND_CID>
43031

> <PUBCHEM_COMPOUND_CANONICALIZED>
1

> <PUBCHEM_CACTVS_COMPLEXITY>
1490

> <PUBCHEM_CACTVS_HBOND_ACCEPTOR>
22

> <PUBCHEM_CACTVS_HBOND_DONOR>
10

> <PUBCHEM_CACTVS_ROTATABLE_BOND>
22

> <PUBCHEM_CACTVS_SUBSKEYS>
AAADcfB//ABgAAAAAAAAAAAAAAAAAAAAAAA8eMGCAAAAAAAB9AAAHgQQCAAADAjh2AYx0YfIEoKgAiRCZHDCAEkhAoAJiBgIZIiKOCLAmZGEIAxokALYyCcQgAAOCAAAACAEAAAQAAAAQAgAAAAAAAAAAA==

> <PUBCHEM_IUPAC_OPENEYE_NAME>
5-[[4-anilino-6-[bis(2-hydroxyethyl)amino]-1,3,5-triazin-2-yl]amino]-2-[2-[4-[[4-anilino-6-[bis(2-hydroxyethyl)amino]-1,3,5-triazin-2-yl]amino]-2-sulfo-phenyl]vinyl]benzenesulfonic acid

> <PUBCHEM_IUPAC_CAS_NAME>
5-[[4-anilino-6-[bis(2-hydroxyethyl)amino]-1,3,5-triazin-2-yl]amino]-2-[2-[4-[[4-anilino-6-[bis(2-hydroxyethyl)amino]-1,3,5-triazin-2-yl]amino]-2-sulfophenyl]ethenyl]benzenesulfonic acid

> <PUBCHEM_IUPAC_NAME_MARKUP>
5-[[4-anilino-6-[bis(2-hydroxyethyl)amino]-1,3,5-triazin-2-yl]amino]-2-[2-[4-[[4-anilino-6-[bis(2-hydroxyethyl)amino]-1,3,5-triazin-2-yl]amino]-2-sulfophenyl]ethenyl]benzenesulfonic acid

> <PUBCHEM_IUPAC_NAME>
5-[[4-anilino-6-[bis(2-hydroxyethyl)amino]-1,3,5-triazin-2-yl]amino]-2-[2-[4-[[4-anilino-6-[bis(2-hydroxyethyl)amino]-1,3,5-triazin-2-yl]amino]-2-sulfophenyl]ethenyl]benzenesulfonic acid

> <PUBCHEM_IUPAC_SYSTEMATIC_NAME>
5-[[4-[bis(2-hydroxyethyl)amino]-6-phenylazanyl-1,3,5-triazin-2-yl]amino]-2-[2-[4-[[4-[bis(2-hydroxyethyl)amino]-6-phenylazanyl-1,3,5-triazin-2-yl]amino]-2-sulfo-phenyl]ethenyl]benzenesulfonic acid

> <PUBCHEM_IUPAC_TRADITIONAL_NAME>
5-[[4-anilino-6-[bis(2-hydroxyethyl)amino]-s-triazin-2-yl]amino]-2-[2-[4-[[4-anilino-6-[bis(2-hydroxyethyl)amino]-s-triazin-2-yl]amino]-2-sulfo-phenyl]vinyl]besylic acid

> <PUBCHEM_IUPAC_INCHI>
InChI=1S/C40H44N12O10S2/c53-21-17-51(18-22-54)39-47-35(41-29-7-3-1-4-8-29)45-37(49-39)43-31-15-13-27(33(25-31)63(57,58)59)11-12-28-14-16-32(26-34(28)64(60,61)62)44-38-46-36(42-30-9-5-2-6-10-30)48-40(50-38)52(19-23-55)20-24-56/h1-16,25-26,53-56H,17-24H2,(H,57,58,59)(H,60,61,62)(H2,41,43,45,47,49)(H2,42,44,46,48,50)

> <PUBCHEM_IUPAC_INCHIKEY>
CNGYZEMWVAWWOB-UHFFFAOYSA-N

> <PUBCHEM_XLOGP3_AA>
3.5

> <PUBCHEM_EXACT_MASS>
916.27447799

> <PUBCHEM_MOLECULAR_FORMULA>
C40H44N12O10S2

> <PUBCHEM_MOLECULAR_WEIGHT>
917.0

> <PUBCHEM_SMILES>
C1=CC=C(C=C1)NC2=NC(=NC(=N2)N(CCO)CCO)NC3=CC(=C(C=C3)C=CC4=C(C=C(C=C4)NC5=NC(=NC(=N5)NC6=CC=CC=C6)N(CCO)CCO)S(=O)(=O)O)S(=O)(=O)O

> <PUBCHEM_CONNECTIVITY_SMILES>
C1=CC=C(C=C1)NC2=NC(=NC(=N2)N(CCO)CCO)NC3=CC(=C(C=C3)C=CC4=C(C=C(C=C4)NC5=NC(=NC(=N5)NC6=CC=CC=C6)N(CCO)CCO)S(=O)(=O)O)S(=O)(=O)O

> <PUBCHEM_CACTVS_TPSA>
338

> <PUBCHEM_MONOISOTOPIC_WEIGHT>
916.27447799

> <PUBCHEM_TOTAL_CHARGE>
0

> <PUBCHEM_HEAVY_ATOM_COUNT>
64

> <PUBCHEM_ATOM_DEF_STEREO_COUNT>
0

> <PUBCHEM_ATOM_UDEF_STEREO_COUNT>
0

> <PUBCHEM_BOND_DEF_STEREO_COUNT>
0

> <PUBCHEM_BOND_UDEF_STEREO_COUNT>
1

> <PUBCHEM_ISOTOPIC_ATOM_COUNT>
0

> <PUBCHEM_COMPONENT_COUNT>
1

> <PUBCHEM_CACTVS_TAUTO_COUNT>
-1

> <PUBCHEM_COORDINATE_TYPE>
1
5
255

> <PUBCHEM_BONDANNOTATIONS>
17  35  8
17  49  8
18  36  8
18  50  8
19  35  8
19  51  8
20  36  8
20  52  8
21  49  8
21  51  8
22  50  8
22  52  8
29  31  8
29  41  8
30  32  8
30  42  8
31  37  8
32  38  8
33  37  8
33  43  8
34  38  8
34  44  8
39  40  1
41  43  8
42  44  8
53  55  8
53  57  8
54  56  8
54  58  8
55  59  8
56  60  8
57  61  8
58  62  8
59  63  8
60  64  8
61  63  8
62  64  8

$$$$
