43176
  -OEChem-05122609352D

 40 40  0     0  0  0  0  0  0999 V2000
    2.0000    3.8450    0.0000 Cl  0  0  0  0  0  0  0  0  0  0  0  0
    3.7321    4.8450    0.0000 O   0  0  0  0  0  0  0  0  0  0  0  0
    5.4641   -1.1550    0.0000 C   0  0  0  0  0  0  0  0  0  0  0  0
    5.4641   -2.1550    0.0000 C   0  0  0  0  0  0  0  0  0  0  0  0
    4.5981   -0.6550    0.0000 C   0  0  0  0  0  0  0  0  0  0  0  0
    6.3301   -2.6550    0.0000 C   0  0  0  0  0  0  0  0  0  0  0  0
    4.5981    0.3450    0.0000 C   0  0  0  0  0  0  0  0  0  0  0  0
    6.3301   -3.6550    0.0000 C   0  0  0  0  0  0  0  0  0  0  0  0
    3.7321    0.8450    0.0000 C   0  0  0  0  0  0  0  0  0  0  0  0
    7.1962   -4.1550    0.0000 C   0  0  0  0  0  0  0  0  0  0  0  0
    3.7321    1.8450    0.0000 C   0  0  0  0  0  0  0  0  0  0  0  0
    7.1962   -5.1550    0.0000 C   0  0  0  0  0  0  0  0  0  0  0  0
    2.8660    2.3450    0.0000 C   0  0  0  0  0  0  0  0  0  0  0  0
    4.5981    2.3450    0.0000 C   0  0  0  0  0  0  0  0  0  0  0  0
    2.8660    3.3450    0.0000 C   0  0  0  0  0  0  0  0  0  0  0  0
    4.5981    3.3450    0.0000 C   0  0  0  0  0  0  0  0  0  0  0  0
    3.7321    3.8450    0.0000 C   0  0  0  0  0  0  0  0  0  0  0  0
    6.0747   -1.2627    0.0000 H   0  0  0  0  0  0  0  0  0  0  0  0
    5.6762   -0.5724    0.0000 H   0  0  0  0  0  0  0  0  0  0  0  0
    4.8535   -2.0473    0.0000 H   0  0  0  0  0  0  0  0  0  0  0  0
    5.2521   -2.7376    0.0000 H   0  0  0  0  0  0  0  0  0  0  0  0
    3.9875   -0.5473    0.0000 H   0  0  0  0  0  0  0  0  0  0  0  0
    4.3860   -1.2376    0.0000 H   0  0  0  0  0  0  0  0  0  0  0  0
    6.9407   -2.7627    0.0000 H   0  0  0  0  0  0  0  0  0  0  0  0
    6.5422   -2.0724    0.0000 H   0  0  0  0  0  0  0  0  0  0  0  0
    5.2087    0.2373    0.0000 H   0  0  0  0  0  0  0  0  0  0  0  0
    4.8101    0.9276    0.0000 H   0  0  0  0  0  0  0  0  0  0  0  0
    5.7196   -3.5473    0.0000 H   0  0  0  0  0  0  0  0  0  0  0  0
    6.1181   -4.2376    0.0000 H   0  0  0  0  0  0  0  0  0  0  0  0
    3.1215    0.9527    0.0000 H   0  0  0  0  0  0  0  0  0  0  0  0
    3.5200    0.2624    0.0000 H   0  0  0  0  0  0  0  0  0  0  0  0
    7.8067   -4.2627    0.0000 H   0  0  0  0  0  0  0  0  0  0  0  0
    7.4082   -3.5724    0.0000 H   0  0  0  0  0  0  0  0  0  0  0  0
    6.5762   -5.1550    0.0000 H   0  0  0  0  0  0  0  0  0  0  0  0
    7.1962   -5.7750    0.0000 H   0  0  0  0  0  0  0  0  0  0  0  0
    7.8162   -5.1550    0.0000 H   0  0  0  0  0  0  0  0  0  0  0  0
    2.3291    2.0350    0.0000 H   0  0  0  0  0  0  0  0  0  0  0  0
    5.1350    2.0350    0.0000 H   0  0  0  0  0  0  0  0  0  0  0  0
    5.1350    3.6550    0.0000 H   0  0  0  0  0  0  0  0  0  0  0  0
    4.2690    5.1550    0.0000 H   0  0  0  0  0  0  0  0  0  0  0  0
  1 15  1  0  0  0  0
  2 17  1  0  0  0  0
  2 40  1  0  0  0  0
  3  4  1  0  0  0  0
  3  5  1  0  0  0  0
  3 18  1  0  0  0  0
  3 19  1  0  0  0  0
  4  6  1  0  0  0  0
  4 20  1  0  0  0  0
  4 21  1  0  0  0  0
  5  7  1  0  0  0  0
  5 22  1  0  0  0  0
  5 23  1  0  0  0  0
  6  8  1  0  0  0  0
  6 24  1  0  0  0  0
  6 25  1  0  0  0  0
  7  9  1  0  0  0  0
  7 26  1  0  0  0  0
  7 27  1  0  0  0  0
  8 10  1  0  0  0  0
  8 28  1  0  0  0  0
  8 29  1  0  0  0  0
  9 11  1  0  0  0  0
  9 30  1  0  0  0  0
  9 31  1  0  0  0  0
 10 12  1  0  0  0  0
 10 32  1  0  0  0  0
 10 33  1  0  0  0  0
 11 13  2  0  0  0  0
 11 14  1  0  0  0  0
 12 34  1  0  0  0  0
 12 35  1  0  0  0  0
 12 36  1  0  0  0  0
 13 15  1  0  0  0  0
 13 37  1  0  0  0  0
 14 16  2  0  0  0  0
 14 38  1  0  0  0  0
 15 17  2  0  0  0  0
 16 17  1  0  0  0  0
 16 39  1  0  0  0  0
M  END
> <PUBCHEM_COMPOUND_CID>
43176

> <PUBCHEM_COMPOUND_CANONICALIZED>
1

> <PUBCHEM_CACTVS_COMPLEXITY>
184

> <PUBCHEM_CACTVS_HBOND_ACCEPTOR>
1

> <PUBCHEM_CACTVS_HBOND_DONOR>
1

> <PUBCHEM_CACTVS_ROTATABLE_BOND>
8

> <PUBCHEM_CACTVS_SUBSKEYS>
AAADceBwIAAEAAAAAAAAAAAAAAAAAAAAAAAwAAAAAAAAAAABAAAAGgIACAAADAaAmCAyBoAAAgCAAiBCAAACAAAgJUAIiAAGC4gIJiKDExKAcAAkwBEImAeAwOAOIAAAIAAACABAAABAAAAQAAAAAAAAAA==

> <PUBCHEM_IUPAC_OPENEYE_NAME>
2-chloro-4-nonyl-phenol

> <PUBCHEM_IUPAC_CAS_NAME>
2-chloro-4-nonylphenol

> <PUBCHEM_IUPAC_NAME_MARKUP>
2-chloro-4-nonylphenol

> <PUBCHEM_IUPAC_NAME>
2-chloro-4-nonylphenol

> <PUBCHEM_IUPAC_SYSTEMATIC_NAME>
2-chloranyl-4-nonyl-phenol

> <PUBCHEM_IUPAC_TRADITIONAL_NAME>
2-chloro-4-nonyl-phenol

> <PUBCHEM_IUPAC_INCHI>
InChI=1S/C15H23ClO/c1-2-3-4-5-6-7-8-9-13-10-11-15(17)14(16)12-13/h10-12,17H,2-9H2,1H3

> <PUBCHEM_IUPAC_INCHIKEY>
HJBUWTLHZIRBIM-UHFFFAOYSA-N

> <PUBCHEM_XLOGP3>
6.7

> <PUBCHEM_EXACT_MASS>
254.1437430

> <PUBCHEM_MOLECULAR_FORMULA>
C15H23ClO

> <PUBCHEM_MOLECULAR_WEIGHT>
254.79

> <PUBCHEM_SMILES>
CCCCCCCCCC1=CC(=C(C=C1)O)Cl

> <PUBCHEM_CONNECTIVITY_SMILES>
CCCCCCCCCC1=CC(=C(C=C1)O)Cl

> <PUBCHEM_CACTVS_TPSA>
20.2

> <PUBCHEM_MONOISOTOPIC_WEIGHT>
254.1437430

> <PUBCHEM_TOTAL_CHARGE>
0

> <PUBCHEM_HEAVY_ATOM_COUNT>
17

> <PUBCHEM_ATOM_DEF_STEREO_COUNT>
0

> <PUBCHEM_ATOM_UDEF_STEREO_COUNT>
0

> <PUBCHEM_BOND_DEF_STEREO_COUNT>
0

> <PUBCHEM_BOND_UDEF_STEREO_COUNT>
0

> <PUBCHEM_ISOTOPIC_ATOM_COUNT>
0

> <PUBCHEM_COMPONENT_COUNT>
1

> <PUBCHEM_CACTVS_TAUTO_COUNT>
-1

> <PUBCHEM_COORDINATE_TYPE>
1
5
255

> <PUBCHEM_BONDANNOTATIONS>
11  13  8
11  14  8
13  15  8
14  16  8
15  17  8
16  17  8

$$$$
