4340158
  -OEChem-05122608302D

 83 82  0     0  0  0  0  0  0999 V2000
   11.5263   -1.3450    0.0000 O   0  0  0  0  0  0  0  0  0  0  0  0
   12.3923    1.1550    0.0000 N   0  0  0  0  0  0  0  0  0  0  0  0
   13.2583    1.6550    0.0000 C   0  0  0  0  0  0  0  0  0  0  0  0
   11.5263    1.6550    0.0000 C   0  0  0  0  0  0  0  0  0  0  0  0
   14.1244    1.1550    0.0000 C   0  0  0  0  0  0  0  0  0  0  0  0
   10.6603    1.1550    0.0000 C   0  0  0  0  0  0  0  0  0  0  0  0
   14.9904    1.6550    0.0000 C   0  0  0  0  0  0  0  0  0  0  0  0
    9.7942    1.6550    0.0000 C   0  0  0  0  0  0  0  0  0  0  0  0
   15.8564    1.1550    0.0000 C   0  0  0  0  0  0  0  0  0  0  0  0
    8.9282    1.1550    0.0000 C   0  0  0  0  0  0  0  0  0  0  0  0
   16.7224    1.6550    0.0000 C   0  0  0  0  0  0  0  0  0  0  0  0
    8.0622    1.6550    0.0000 C   0  0  0  0  0  0  0  0  0  0  0  0
   17.5885    1.1550    0.0000 C   0  0  0  0  0  0  0  0  0  0  0  0
    7.1962    1.1550    0.0000 C   0  0  0  0  0  0  0  0  0  0  0  0
   18.4545    1.6550    0.0000 C   0  0  0  0  0  0  0  0  0  0  0  0
    6.3301    1.6550    0.0000 C   0  0  0  0  0  0  0  0  0  0  0  0
   12.3923    0.1550    0.0000 C   0  0  0  0  0  0  0  0  0  0  0  0
   19.3205    1.1550    0.0000 C   0  0  0  0  0  0  0  0  0  0  0  0
    5.4641    1.1550    0.0000 C   0  0  0  0  0  0  0  0  0  0  0  0
   20.1865    1.6550    0.0000 C   0  0  0  0  0  0  0  0  0  0  0  0
    4.5981    1.6550    0.0000 C   0  0  0  0  0  0  0  0  0  0  0  0
   11.5263   -0.3450    0.0000 C   0  0  0  0  0  0  0  0  0  0  0  0
   21.0526    1.1550    0.0000 C   0  0  0  0  0  0  0  0  0  0  0  0
    3.7320    1.1550    0.0000 C   0  0  0  0  0  0  0  0  0  0  0  0
   21.9186    1.6550    0.0000 C   0  0  0  0  0  0  0  0  0  0  0  0
    2.8660    1.6550    0.0000 C   0  0  0  0  0  0  0  0  0  0  0  0
   22.7846    1.1550    0.0000 C   0  0  0  0  0  0  0  0  0  0  0  0
    2.0000    1.1550    0.0000 C   0  0  0  0  0  0  0  0  0  0  0  0
   13.6569    2.1300    0.0000 H   0  0  0  0  0  0  0  0  0  0  0  0
   12.8598    2.1300    0.0000 H   0  0  0  0  0  0  0  0  0  0  0  0
   11.9248    2.1300    0.0000 H   0  0  0  0  0  0  0  0  0  0  0  0
   11.1278    2.1300    0.0000 H   0  0  0  0  0  0  0  0  0  0  0  0
   13.7258    0.6801    0.0000 H   0  0  0  0  0  0  0  0  0  0  0  0
   14.5229    0.6801    0.0000 H   0  0  0  0  0  0  0  0  0  0  0  0
   10.2617    0.6801    0.0000 H   0  0  0  0  0  0  0  0  0  0  0  0
   11.0588    0.6801    0.0000 H   0  0  0  0  0  0  0  0  0  0  0  0
   15.3889    2.1300    0.0000 H   0  0  0  0  0  0  0  0  0  0  0  0
   14.5919    2.1300    0.0000 H   0  0  0  0  0  0  0  0  0  0  0  0
   10.1928    2.1300    0.0000 H   0  0  0  0  0  0  0  0  0  0  0  0
    9.3957    2.1300    0.0000 H   0  0  0  0  0  0  0  0  0  0  0  0
   15.4579    0.6801    0.0000 H   0  0  0  0  0  0  0  0  0  0  0  0
   16.2549    0.6801    0.0000 H   0  0  0  0  0  0  0  0  0  0  0  0
    8.5297    0.6801    0.0000 H   0  0  0  0  0  0  0  0  0  0  0  0
    9.3267    0.6801    0.0000 H   0  0  0  0  0  0  0  0  0  0  0  0
   17.1210    2.1300    0.0000 H   0  0  0  0  0  0  0  0  0  0  0  0
   16.3239    2.1300    0.0000 H   0  0  0  0  0  0  0  0  0  0  0  0
    8.4607    2.1300    0.0000 H   0  0  0  0  0  0  0  0  0  0  0  0
    7.6636    2.1300    0.0000 H   0  0  0  0  0  0  0  0  0  0  0  0
   17.1899    0.6801    0.0000 H   0  0  0  0  0  0  0  0  0  0  0  0
   17.9870    0.6801    0.0000 H   0  0  0  0  0  0  0  0  0  0  0  0
    6.7976    0.6801    0.0000 H   0  0  0  0  0  0  0  0  0  0  0  0
    7.5947    0.6801    0.0000 H   0  0  0  0  0  0  0  0  0  0  0  0
   18.8530    2.1300    0.0000 H   0  0  0  0  0  0  0  0  0  0  0  0
   18.0560    2.1300    0.0000 H   0  0  0  0  0  0  0  0  0  0  0  0
    6.7287    2.1300    0.0000 H   0  0  0  0  0  0  0  0  0  0  0  0
    5.9316    2.1300    0.0000 H   0  0  0  0  0  0  0  0  0  0  0  0
   12.6044   -0.4276    0.0000 H   0  0  0  0  0  0  0  0  0  0  0  0
   13.0029    0.2627    0.0000 H   0  0  0  0  0  0  0  0  0  0  0  0
   18.9220    0.6801    0.0000 H   0  0  0  0  0  0  0  0  0  0  0  0
   19.7190    0.6801    0.0000 H   0  0  0  0  0  0  0  0  0  0  0  0
    5.0656    0.6801    0.0000 H   0  0  0  0  0  0  0  0  0  0  0  0
    5.8626    0.6801    0.0000 H   0  0  0  0  0  0  0  0  0  0  0  0
   20.5851    2.1300    0.0000 H   0  0  0  0  0  0  0  0  0  0  0  0
   19.7880    2.1300    0.0000 H   0  0  0  0  0  0  0  0  0  0  0  0
    4.9966    2.1300    0.0000 H   0  0  0  0  0  0  0  0  0  0  0  0
    4.1996    2.1300    0.0000 H   0  0  0  0  0  0  0  0  0  0  0  0
   11.3142    0.2376    0.0000 H   0  0  0  0  0  0  0  0  0  0  0  0
   10.9157   -0.4527    0.0000 H   0  0  0  0  0  0  0  0  0  0  0  0
   20.6540    0.6801    0.0000 H   0  0  0  0  0  0  0  0  0  0  0  0
   21.4511    0.6801    0.0000 H   0  0  0  0  0  0  0  0  0  0  0  0
    3.3335    0.6801    0.0000 H   0  0  0  0  0  0  0  0  0  0  0  0
    4.1306    0.6801    0.0000 H   0  0  0  0  0  0  0  0  0  0  0  0
   22.3171    2.1300    0.0000 H   0  0  0  0  0  0  0  0  0  0  0  0
   21.5201    2.1300    0.0000 H   0  0  0  0  0  0  0  0  0  0  0  0
    3.2646    2.1300    0.0000 H   0  0  0  0  0  0  0  0  0  0  0  0
    2.4675    2.1300    0.0000 H   0  0  0  0  0  0  0  0  0  0  0  0
   22.4746    0.6181    0.0000 H   0  0  0  0  0  0  0  0  0  0  0  0
   23.3215    0.8450    0.0000 H   0  0  0  0  0  0  0  0  0  0  0  0
   23.0946    1.6919    0.0000 H   0  0  0  0  0  0  0  0  0  0  0  0
    1.6900    1.6919    0.0000 H   0  0  0  0  0  0  0  0  0  0  0  0
    1.4631    0.8450    0.0000 H   0  0  0  0  0  0  0  0  0  0  0  0
    2.3100    0.6181    0.0000 H   0  0  0  0  0  0  0  0  0  0  0  0
   10.9893   -1.6550    0.0000 H   0  0  0  0  0  0  0  0  0  0  0  0
  1 22  1  0  0  0  0
  1 83  1  0  0  0  0
  2  3  1  0  0  0  0
  2  4  1  0  0  0  0
  2 17  1  0  0  0  0
  3  5  1  0  0  0  0
  3 29  1  0  0  0  0
  3 30  1  0  0  0  0
  4  6  1  0  0  0  0
  4 31  1  0  0  0  0
  4 32  1  0  0  0  0
  5  7  1  0  0  0  0
  5 33  1  0  0  0  0
  5 34  1  0  0  0  0
  6  8  1  0  0  0  0
  6 35  1  0  0  0  0
  6 36  1  0  0  0  0
  7  9  1  0  0  0  0
  7 37  1  0  0  0  0
  7 38  1  0  0  0  0
  8 10  1  0  0  0  0
  8 39  1  0  0  0  0
  8 40  1  0  0  0  0
  9 11  1  0  0  0  0
  9 41  1  0  0  0  0
  9 42  1  0  0  0  0
 10 12  1  0  0  0  0
 10 43  1  0  0  0  0
 10 44  1  0  0  0  0
 11 13  1  0  0  0  0
 11 45  1  0  0  0  0
 11 46  1  0  0  0  0
 12 14  1  0  0  0  0
 12 47  1  0  0  0  0
 12 48  1  0  0  0  0
 13 15  1  0  0  0  0
 13 49  1  0  0  0  0
 13 50  1  0  0  0  0
 14 16  1  0  0  0  0
 14 51  1  0  0  0  0
 14 52  1  0  0  0  0
 15 18  1  0  0  0  0
 15 53  1  0  0  0  0
 15 54  1  0  0  0  0
 16 19  1  0  0  0  0
 16 55  1  0  0  0  0
 16 56  1  0  0  0  0
 17 22  1  0  0  0  0
 17 57  1  0  0  0  0
 17 58  1  0  0  0  0
 18 20  1  0  0  0  0
 18 59  1  0  0  0  0
 18 60  1  0  0  0  0
 19 21  1  0  0  0  0
 19 61  1  0  0  0  0
 19 62  1  0  0  0  0
 20 23  1  0  0  0  0
 20 63  1  0  0  0  0
 20 64  1  0  0  0  0
 21 24  1  0  0  0  0
 21 65  1  0  0  0  0
 21 66  1  0  0  0  0
 22 67  1  0  0  0  0
 22 68  1  0  0  0  0
 23 25  1  0  0  0  0
 23 69  1  0  0  0  0
 23 70  1  0  0  0  0
 24 26  1  0  0  0  0
 24 71  1  0  0  0  0
 24 72  1  0  0  0  0
 25 27  1  0  0  0  0
 25 73  1  0  0  0  0
 25 74  1  0  0  0  0
 26 28  1  0  0  0  0
 26 75  1  0  0  0  0
 26 76  1  0  0  0  0
 27 77  1  0  0  0  0
 27 78  1  0  0  0  0
 27 79  1  0  0  0  0
 28 80  1  0  0  0  0
 28 81  1  0  0  0  0
 28 82  1  0  0  0  0
M  END
> <PUBCHEM_COMPOUND_CID>
4340158

> <PUBCHEM_COMPOUND_CANONICALIZED>
1

> <PUBCHEM_CACTVS_COMPLEXITY>
245

> <PUBCHEM_CACTVS_HBOND_ACCEPTOR>
2

> <PUBCHEM_CACTVS_HBOND_DONOR>
1

> <PUBCHEM_CACTVS_ROTATABLE_BOND>
24

> <PUBCHEM_CACTVS_SUBSKEYS>
AAADcfB6IAAAAAAAAAAAAAAAAAAAAAAAAAAAAAAAAAAAAAAAAAAAHgAACAAACADhgAYCAAMAAgAAAAAAAAAAAAAAAAAAAAAIAAACEAIAgAAEAAAAAACQAAEQgIAAAAAAAAAAAAAAAAAAAAAAAAAAAAAAAA==

> <PUBCHEM_IUPAC_OPENEYE_NAME>
2-(didodecylamino)ethanol

> <PUBCHEM_IUPAC_CAS_NAME>
2-(didodecylamino)ethanol

> <PUBCHEM_IUPAC_NAME_MARKUP>
2-(didodecylamino)ethanol

> <PUBCHEM_IUPAC_NAME>
2-(didodecylamino)ethanol

> <PUBCHEM_IUPAC_SYSTEMATIC_NAME>
2-(didodecylamino)ethanol

> <PUBCHEM_IUPAC_TRADITIONAL_NAME>
2-(dilaurylamino)ethanol

> <PUBCHEM_IUPAC_INCHI>
InChI=1S/C26H55NO/c1-3-5-7-9-11-13-15-17-19-21-23-27(25-26-28)24-22-20-18-16-14-12-10-8-6-4-2/h28H,3-26H2,1-2H3

> <PUBCHEM_IUPAC_INCHIKEY>
YQFRJTDYLIBDED-UHFFFAOYSA-N

> <PUBCHEM_XLOGP3_AA>
10.7

> <PUBCHEM_EXACT_MASS>
397.428365378

> <PUBCHEM_MOLECULAR_FORMULA>
C26H55NO

> <PUBCHEM_MOLECULAR_WEIGHT>
397.7

> <PUBCHEM_SMILES>
CCCCCCCCCCCCN(CCCCCCCCCCCC)CCO

> <PUBCHEM_CONNECTIVITY_SMILES>
CCCCCCCCCCCCN(CCCCCCCCCCCC)CCO

> <PUBCHEM_CACTVS_TPSA>
23.5

> <PUBCHEM_MONOISOTOPIC_WEIGHT>
397.428365378

> <PUBCHEM_TOTAL_CHARGE>
0

> <PUBCHEM_HEAVY_ATOM_COUNT>
28

> <PUBCHEM_ATOM_DEF_STEREO_COUNT>
0

> <PUBCHEM_ATOM_UDEF_STEREO_COUNT>
0

> <PUBCHEM_BOND_DEF_STEREO_COUNT>
0

> <PUBCHEM_BOND_UDEF_STEREO_COUNT>
0

> <PUBCHEM_ISOTOPIC_ATOM_COUNT>
0

> <PUBCHEM_COMPONENT_COUNT>
1

> <PUBCHEM_CACTVS_TAUTO_COUNT>
-1

> <PUBCHEM_COORDINATE_TYPE>
1
5
255

$$$$
