434666
  -OEChem-05122609202D

 28 29  0     1  0  0  0  0  0999 V2000
    4.5691    0.9139    0.0000 O   0  0  0  0  0  0  0  0  0  0  0  0
    3.2601    1.8649    0.0000 N   0  0  3  0  0  0  0  0  0  0  0  0
    2.9511    0.9139    0.0000 C   0  0  3  0  0  0  0  0  0  0  0  0
    3.7601    0.3261    0.0000 C   0  0  3  0  0  0  0  0  0  0  0  0
    4.2601    1.8649    0.0000 C   0  0  0  0  0  0  0  0  0  0  0  0
    3.7601   -0.6739    0.0000 C   0  0  0  0  0  0  0  0  0  0  0  0
    2.0000    0.6048    0.0000 C   0  0  0  0  0  0  0  0  0  0  0  0
    2.6723    2.6739    0.0000 C   0  0  0  0  0  0  0  0  0  0  0  0
    2.8941   -1.1739    0.0000 C   0  0  0  0  0  0  0  0  0  0  0  0
    4.6261   -1.1739    0.0000 C   0  0  0  0  0  0  0  0  0  0  0  0
    2.8941   -2.1739    0.0000 C   0  0  0  0  0  0  0  0  0  0  0  0
    4.6261   -2.1739    0.0000 C   0  0  0  0  0  0  0  0  0  0  0  0
    3.7601   -2.6739    0.0000 C   0  0  0  0  0  0  0  0  0  0  0  0
    2.5127    1.3523    0.0000 H   0  0  0  0  0  0  0  0  0  0  0  0
    4.3125    0.0446    0.0000 H   0  0  0  0  0  0  0  0  0  0  0  0
    4.8665    1.9938    0.0000 H   0  0  0  0  0  0  0  0  0  0  0  0
    4.1953    2.4815    0.0000 H   0  0  0  0  0  0  0  0  0  0  0  0
    1.8084    1.1945    0.0000 H   0  0  0  0  0  0  0  0  0  0  0  0
    1.4103    0.4132    0.0000 H   0  0  0  0  0  0  0  0  0  0  0  0
    2.1916    0.0152    0.0000 H   0  0  0  0  0  0  0  0  0  0  0  0
    3.1739    3.0384    0.0000 H   0  0  0  0  0  0  0  0  0  0  0  0
    2.3079    3.1755    0.0000 H   0  0  0  0  0  0  0  0  0  0  0  0
    2.1707    2.3095    0.0000 H   0  0  0  0  0  0  0  0  0  0  0  0
    2.3571   -0.8639    0.0000 H   0  0  0  0  0  0  0  0  0  0  0  0
    5.1630   -0.8639    0.0000 H   0  0  0  0  0  0  0  0  0  0  0  0
    2.3571   -2.4839    0.0000 H   0  0  0  0  0  0  0  0  0  0  0  0
    5.1630   -2.4839    0.0000 H   0  0  0  0  0  0  0  0  0  0  0  0
    3.7601   -3.2939    0.0000 H   0  0  0  0  0  0  0  0  0  0  0  0
  1  4  1  0  0  0  0
  1  5  1  0  0  0  0
  2  3  1  0  0  0  0
  2  5  1  0  0  0  0
  2  8  1  0  0  0  0
  3  4  1  0  0  0  0
  3  7  1  0  0  0  0
  3 14  1  0  0  0  0
  4  6  1  0  0  0  0
  4 15  1  0  0  0  0
  5 16  1  0  0  0  0
  5 17  1  0  0  0  0
  6  9  2  0  0  0  0
  6 10  1  0  0  0  0
  7 18  1  0  0  0  0
  7 19  1  0  0  0  0
  7 20  1  0  0  0  0
  8 21  1  0  0  0  0
  8 22  1  0  0  0  0
  8 23  1  0  0  0  0
  9 11  1  0  0  0  0
  9 24  1  0  0  0  0
 10 12  2  0  0  0  0
 10 25  1  0  0  0  0
 11 13  2  0  0  0  0
 11 26  1  0  0  0  0
 12 13  1  0  0  0  0
 12 27  1  0  0  0  0
 13 28  1  0  0  0  0
M  END
> <PUBCHEM_COMPOUND_CID>
434666

> <PUBCHEM_COMPOUND_CANONICALIZED>
1

> <PUBCHEM_CACTVS_COMPLEXITY>
165

> <PUBCHEM_CACTVS_HBOND_ACCEPTOR>
2

> <PUBCHEM_CACTVS_HBOND_DONOR>
0

> <PUBCHEM_CACTVS_ROTATABLE_BOND>
1

> <PUBCHEM_CACTVS_SUBSKEYS>
AAADccByIAAAAAAAAAAAAAAAAAAAAWAAAAAwAAAAAAAAAAABAAAAHgAAAAAADDzhmAYyAIMABACAAiBCAAACAAAgAAAIiAAICIgKJiKAsRmNMAAkwAEYqAeQwKAOAAAAAAAAAAAAAAAAAAAAAAAAAAAAAA==

> <PUBCHEM_IUPAC_OPENEYE_NAME>
3,4-dimethyl-5-phenyl-oxazolidine

> <PUBCHEM_IUPAC_CAS_NAME>
3,4-dimethyl-5-phenyloxazolidine

> <PUBCHEM_IUPAC_NAME_MARKUP>
3,4-dimethyl-5-phenyl-1,3-oxazolidine

> <PUBCHEM_IUPAC_NAME>
3,4-dimethyl-5-phenyl-1,3-oxazolidine

> <PUBCHEM_IUPAC_SYSTEMATIC_NAME>
3,4-dimethyl-5-phenyl-1,3-oxazolidine

> <PUBCHEM_IUPAC_TRADITIONAL_NAME>
3,4-dimethyl-5-phenyl-oxazolidine

> <PUBCHEM_IUPAC_INCHI>
InChI=1S/C11H15NO/c1-9-11(13-8-12(9)2)10-6-4-3-5-7-10/h3-7,9,11H,8H2,1-2H3

> <PUBCHEM_IUPAC_INCHIKEY>
POZQVPIDBKNJTK-UHFFFAOYSA-N

> <PUBCHEM_XLOGP3_AA>
1.9

> <PUBCHEM_EXACT_MASS>
177.115364102

> <PUBCHEM_MOLECULAR_FORMULA>
C11H15NO

> <PUBCHEM_MOLECULAR_WEIGHT>
177.24

> <PUBCHEM_SMILES>
CC1C(OCN1C)C2=CC=CC=C2

> <PUBCHEM_CONNECTIVITY_SMILES>
CC1C(OCN1C)C2=CC=CC=C2

> <PUBCHEM_CACTVS_TPSA>
12.5

> <PUBCHEM_MONOISOTOPIC_WEIGHT>
177.115364102

> <PUBCHEM_TOTAL_CHARGE>
0

> <PUBCHEM_HEAVY_ATOM_COUNT>
13

> <PUBCHEM_ATOM_DEF_STEREO_COUNT>
0

> <PUBCHEM_ATOM_UDEF_STEREO_COUNT>
2

> <PUBCHEM_BOND_DEF_STEREO_COUNT>
0

> <PUBCHEM_BOND_UDEF_STEREO_COUNT>
0

> <PUBCHEM_ISOTOPIC_ATOM_COUNT>
0

> <PUBCHEM_COMPONENT_COUNT>
1

> <PUBCHEM_CACTVS_TAUTO_COUNT>
-1

> <PUBCHEM_COORDINATE_TYPE>
1
5
255

> <PUBCHEM_BONDANNOTATIONS>
10  12  8
11  13  8
12  13  8
3  7  3
4  6  3
6  10  8
6  9  8
9  11  8

$$$$
