4393691
  -OEChem-08032615262D

 40 39  0     0  0  0  0  0  0999 V2000
    8.9282    0.5670    0.0000 O   0  0  0  0  0  0  0  0  0  0  0  0
    3.7321    0.5670    0.0000 O   0  0  0  0  0  0  0  0  0  0  0  0
    8.0622   -0.9330    0.0000 O   0  0  0  0  0  0  0  0  0  0  0  0
    4.5981   -0.9330    0.0000 O   0  0  0  0  0  0  0  0  0  0  0  0
    6.3301    0.0670    0.0000 N   0  0  0  0  0  0  0  0  0  0  0  0
    9.7942    0.0670    0.0000 C   0  0  0  0  0  0  0  0  0  0  0  0
    2.8660    0.0670    0.0000 C   0  0  0  0  0  0  0  0  0  0  0  0
   10.6603   -0.4330    0.0000 C   0  0  0  0  0  0  0  0  0  0  0  0
   10.2942    0.9330    0.0000 C   0  0  0  0  0  0  0  0  0  0  0  0
    9.2942   -0.7990    0.0000 C   0  0  0  0  0  0  0  0  0  0  0  0
    2.0000   -0.4330    0.0000 C   0  0  0  0  0  0  0  0  0  0  0  0
    2.3660    0.9330    0.0000 C   0  0  0  0  0  0  0  0  0  0  0  0
    3.3660   -0.7990    0.0000 C   0  0  0  0  0  0  0  0  0  0  0  0
    7.1962    0.5670    0.0000 C   0  0  0  0  0  0  0  0  0  0  0  0
    5.4641    0.5670    0.0000 C   0  0  0  0  0  0  0  0  0  0  0  0
    8.0622    0.0670    0.0000 C   0  0  0  0  0  0  0  0  0  0  0  0
    4.5981    0.0670    0.0000 C   0  0  0  0  0  0  0  0  0  0  0  0
   10.3503   -0.9699    0.0000 H   0  0  0  0  0  0  0  0  0  0  0  0
   11.1972   -0.7430    0.0000 H   0  0  0  0  0  0  0  0  0  0  0  0
   10.9703    0.1039    0.0000 H   0  0  0  0  0  0  0  0  0  0  0  0
   10.8312    0.6230    0.0000 H   0  0  0  0  0  0  0  0  0  0  0  0
   10.6042    1.4700    0.0000 H   0  0  0  0  0  0  0  0  0  0  0  0
    9.7573    1.2430    0.0000 H   0  0  0  0  0  0  0  0  0  0  0  0
    8.7573   -0.4890    0.0000 H   0  0  0  0  0  0  0  0  0  0  0  0
    8.9842   -1.3360    0.0000 H   0  0  0  0  0  0  0  0  0  0  0  0
    9.8312   -1.1090    0.0000 H   0  0  0  0  0  0  0  0  0  0  0  0
    1.6900    0.1039    0.0000 H   0  0  0  0  0  0  0  0  0  0  0  0
    1.4631   -0.7430    0.0000 H   0  0  0  0  0  0  0  0  0  0  0  0
    2.3100   -0.9699    0.0000 H   0  0  0  0  0  0  0  0  0  0  0  0
    2.9030    1.2430    0.0000 H   0  0  0  0  0  0  0  0  0  0  0  0
    2.0560    1.4700    0.0000 H   0  0  0  0  0  0  0  0  0  0  0  0
    1.8291    0.6230    0.0000 H   0  0  0  0  0  0  0  0  0  0  0  0
    2.8291   -1.1090    0.0000 H   0  0  0  0  0  0  0  0  0  0  0  0
    3.6760   -1.3360    0.0000 H   0  0  0  0  0  0  0  0  0  0  0  0
    3.9030   -0.4890    0.0000 H   0  0  0  0  0  0  0  0  0  0  0  0
    7.5947    1.0419    0.0000 H   0  0  0  0  0  0  0  0  0  0  0  0
    6.7976    1.0419    0.0000 H   0  0  0  0  0  0  0  0  0  0  0  0
    5.8626    1.0419    0.0000 H   0  0  0  0  0  0  0  0  0  0  0  0
    5.0656    1.0419    0.0000 H   0  0  0  0  0  0  0  0  0  0  0  0
    6.3301   -0.5530    0.0000 H   0  0  0  0  0  0  0  0  0  0  0  0
  1  6  1  0  0  0  0
  1 16  1  0  0  0  0
  2  7  1  0  0  0  0
  2 17  1  0  0  0  0
  3 16  2  0  0  0  0
  4 17  2  0  0  0  0
  5 14  1  0  0  0  0
  5 15  1  0  0  0  0
  5 40  1  0  0  0  0
  6  8  1  0  0  0  0
  6  9  1  0  0  0  0
  6 10  1  0  0  0  0
  7 11  1  0  0  0  0
  7 12  1  0  0  0  0
  7 13  1  0  0  0  0
  8 18  1  0  0  0  0
  8 19  1  0  0  0  0
  8 20  1  0  0  0  0
  9 21  1  0  0  0  0
  9 22  1  0  0  0  0
  9 23  1  0  0  0  0
 10 24  1  0  0  0  0
 10 25  1  0  0  0  0
 10 26  1  0  0  0  0
 11 27  1  0  0  0  0
 11 28  1  0  0  0  0
 11 29  1  0  0  0  0
 12 30  1  0  0  0  0
 12 31  1  0  0  0  0
 12 32  1  0  0  0  0
 13 33  1  0  0  0  0
 13 34  1  0  0  0  0
 13 35  1  0  0  0  0
 14 16  1  0  0  0  0
 14 36  1  0  0  0  0
 14 37  1  0  0  0  0
 15 17  1  0  0  0  0
 15 38  1  0  0  0  0
 15 39  1  0  0  0  0
M  END
> <PUBCHEM_COMPOUND_CID>
4393691

> <PUBCHEM_COMPOUND_CANONICALIZED>
1

> <PUBCHEM_CACTVS_COMPLEXITY>
245

> <PUBCHEM_CACTVS_HBOND_ACCEPTOR>
5

> <PUBCHEM_CACTVS_HBOND_DONOR>
1

> <PUBCHEM_CACTVS_ROTATABLE_BOND>
8

> <PUBCHEM_CACTVS_SUBSKEYS>
AAADceByOAAAAAAAAAAAAAAAAAAAAAAAAAAAAAAAAAAAAAAAAAAAHgAQAAAADETBgAQCCALABAAIAACQCAAAAAAAAAAAAICIAAACAAAAACADAAAAAACQAAAAAAAAAAAAAAAAAAAAAAAAAAAAAAAAAAAAAA==

> <PUBCHEM_IUPAC_OPENEYE_NAME>
tert-butyl 2-[(2-tert-butoxy-2-oxo-ethyl)amino]acetate

> <PUBCHEM_IUPAC_CAS_NAME>
2-[[2-[(2-methylpropan-2-yl)oxy]-2-oxoethyl]amino]acetic acid tert-butyl ester

> <PUBCHEM_IUPAC_NAME_MARKUP>
<I>tert</I>-butyl 2-[[2-[(2-methylpropan-2-yl)oxy]-2-oxoethyl]amino]acetate

> <PUBCHEM_IUPAC_NAME>
tert-butyl 2-[[2-[(2-methylpropan-2-yl)oxy]-2-oxoethyl]amino]acetate

> <PUBCHEM_IUPAC_SYSTEMATIC_NAME>
tert-butyl 2-[[2-[(2-methylpropan-2-yl)oxy]-2-oxidanylidene-ethyl]amino]ethanoate

> <PUBCHEM_IUPAC_TRADITIONAL_NAME>
2-[(2-tert-butoxy-2-keto-ethyl)amino]acetic acid tert-butyl ester

> <PUBCHEM_IUPAC_INCHI>
InChI=1S/C12H23NO4/c1-11(2,3)16-9(14)7-13-8-10(15)17-12(4,5)6/h13H,7-8H2,1-6H3

> <PUBCHEM_IUPAC_INCHIKEY>
SMXMBXPLRFTROI-UHFFFAOYSA-N

> <PUBCHEM_XLOGP3_AA>
1.6

> <PUBCHEM_EXACT_MASS>
245.16270821

> <PUBCHEM_MOLECULAR_FORMULA>
C12H23NO4

> <PUBCHEM_MOLECULAR_WEIGHT>
245.32

> <PUBCHEM_SMILES>
CC(C)(C)OC(=O)CNCC(=O)OC(C)(C)C

> <PUBCHEM_CONNECTIVITY_SMILES>
CC(C)(C)OC(=O)CNCC(=O)OC(C)(C)C

> <PUBCHEM_CACTVS_TPSA>
64.6

> <PUBCHEM_MONOISOTOPIC_WEIGHT>
245.16270821

> <PUBCHEM_TOTAL_CHARGE>
0

> <PUBCHEM_HEAVY_ATOM_COUNT>
17

> <PUBCHEM_ATOM_DEF_STEREO_COUNT>
0

> <PUBCHEM_ATOM_UDEF_STEREO_COUNT>
0

> <PUBCHEM_BOND_DEF_STEREO_COUNT>
0

> <PUBCHEM_BOND_UDEF_STEREO_COUNT>
0

> <PUBCHEM_ISOTOPIC_ATOM_COUNT>
0

> <PUBCHEM_COMPONENT_COUNT>
1

> <PUBCHEM_CACTVS_TAUTO_COUNT>
-1

> <PUBCHEM_COORDINATE_TYPE>
1
5
255

$$$$
