44006
  -OEChem-05122608422D

 41 40  0     1  0  0  0  0  0999 V2000
    3.7320   -0.3170    0.0000 C   0  0  0  0  0  0  0  0  0  0  0  0
    4.5981    0.1830    0.0000 C   0  0  0  0  0  0  0  0  0  0  0  0
    5.4641   -0.3170    0.0000 C   0  0  0  0  0  0  0  0  0  0  0  0
    6.3301    0.1830    0.0000 C   0  0  0  0  0  0  0  0  0  0  0  0
    2.8660   -0.8170    0.0000 C   0  0  0  0  0  0  0  0  0  0  0  0
    7.1962   -0.3170    0.0000 C   0  0  0  0  0  0  0  0  0  0  0  0
    8.0622    0.1830    0.0000 C   0  0  3  0  0  0  0  0  0  0  0  0
    3.2320    0.5490    0.0000 C   0  0  0  0  0  0  0  0  0  0  0  0
    4.2320   -1.1830    0.0000 C   0  0  0  0  0  0  0  0  0  0  0  0
    8.9282   -0.3170    0.0000 C   0  0  0  0  0  0  0  0  0  0  0  0
    2.0000   -0.3170    0.0000 C   0  0  0  0  0  0  0  0  0  0  0  0
    8.0622    1.1830    0.0000 C   0  0  0  0  0  0  0  0  0  0  0  0
    9.7942    0.1830    0.0000 C   0  0  0  0  0  0  0  0  0  0  0  0
    4.9966    0.6580    0.0000 H   0  0  0  0  0  0  0  0  0  0  0  0
    4.1996    0.6580    0.0000 H   0  0  0  0  0  0  0  0  0  0  0  0
    5.0656   -0.7919    0.0000 H   0  0  0  0  0  0  0  0  0  0  0  0
    5.8626   -0.7919    0.0000 H   0  0  0  0  0  0  0  0  0  0  0  0
    6.7287    0.6580    0.0000 H   0  0  0  0  0  0  0  0  0  0  0  0
    5.9316    0.6580    0.0000 H   0  0  0  0  0  0  0  0  0  0  0  0
    2.4675   -1.2919    0.0000 H   0  0  0  0  0  0  0  0  0  0  0  0
    3.2646   -1.2919    0.0000 H   0  0  0  0  0  0  0  0  0  0  0  0
    6.7976   -0.7919    0.0000 H   0  0  0  0  0  0  0  0  0  0  0  0
    7.5947   -0.7919    0.0000 H   0  0  0  0  0  0  0  0  0  0  0  0
    7.5252    0.4930    0.0000 H   0  0  0  0  0  0  0  0  0  0  0  0
    3.7690    0.8590    0.0000 H   0  0  0  0  0  0  0  0  0  0  0  0
    2.9220    1.0860    0.0000 H   0  0  0  0  0  0  0  0  0  0  0  0
    2.6951    0.2390    0.0000 H   0  0  0  0  0  0  0  0  0  0  0  0
    3.6951   -1.4930    0.0000 H   0  0  0  0  0  0  0  0  0  0  0  0
    4.5420   -1.7200    0.0000 H   0  0  0  0  0  0  0  0  0  0  0  0
    4.7690   -0.8730    0.0000 H   0  0  0  0  0  0  0  0  0  0  0  0
    8.5297   -0.7919    0.0000 H   0  0  0  0  0  0  0  0  0  0  0  0
    9.3267   -0.7919    0.0000 H   0  0  0  0  0  0  0  0  0  0  0  0
    2.3100    0.2199    0.0000 H   0  0  0  0  0  0  0  0  0  0  0  0
    1.4631   -0.0070    0.0000 H   0  0  0  0  0  0  0  0  0  0  0  0
    1.6900   -0.8539    0.0000 H   0  0  0  0  0  0  0  0  0  0  0  0
    8.6822    1.1830    0.0000 H   0  0  0  0  0  0  0  0  0  0  0  0
    8.0622    1.8030    0.0000 H   0  0  0  0  0  0  0  0  0  0  0  0
    7.4422    1.1830    0.0000 H   0  0  0  0  0  0  0  0  0  0  0  0
   10.1042   -0.3539    0.0000 H   0  0  0  0  0  0  0  0  0  0  0  0
   10.3312    0.4930    0.0000 H   0  0  0  0  0  0  0  0  0  0  0  0
    9.4842    0.7199    0.0000 H   0  0  0  0  0  0  0  0  0  0  0  0
  1  2  1  0  0  0  0
  1  5  1  0  0  0  0
  1  8  1  0  0  0  0
  1  9  1  0  0  0  0
  2  3  1  0  0  0  0
  2 14  1  0  0  0  0
  2 15  1  0  0  0  0
  3  4  1  0  0  0  0
  3 16  1  0  0  0  0
  3 17  1  0  0  0  0
  4  6  1  0  0  0  0
  4 18  1  0  0  0  0
  4 19  1  0  0  0  0
  5 11  1  0  0  0  0
  5 20  1  0  0  0  0
  5 21  1  0  0  0  0
  6  7  1  0  0  0  0
  6 22  1  0  0  0  0
  6 23  1  0  0  0  0
  7 10  1  0  0  0  0
  7 12  1  0  0  0  0
  7 24  1  0  0  0  0
  8 25  1  0  0  0  0
  8 26  1  0  0  0  0
  8 27  1  0  0  0  0
  9 28  1  0  0  0  0
  9 29  1  0  0  0  0
  9 30  1  0  0  0  0
 10 13  1  0  0  0  0
 10 31  1  0  0  0  0
 10 32  1  0  0  0  0
 11 33  1  0  0  0  0
 11 34  1  0  0  0  0
 11 35  1  0  0  0  0
 12 36  1  0  0  0  0
 12 37  1  0  0  0  0
 12 38  1  0  0  0  0
 13 39  1  0  0  0  0
 13 40  1  0  0  0  0
 13 41  1  0  0  0  0
M  END
> <PUBCHEM_COMPOUND_CID>
44006

> <PUBCHEM_COMPOUND_CANONICALIZED>
1

> <PUBCHEM_CACTVS_COMPLEXITY>
113

> <PUBCHEM_CACTVS_HBOND_ACCEPTOR>
0

> <PUBCHEM_CACTVS_HBOND_DONOR>
0

> <PUBCHEM_CACTVS_ROTATABLE_BOND>
7

> <PUBCHEM_CACTVS_SUBSKEYS>
AAADceBwAAAAAAAAAAAAAAAAAAAAAAAAAAAAAAAAAAAAAAAAAAAAGAAAAAAADwCAAAACAAAAAAAAAAAAAAAAAAAAAAAAAAAAAAAAAAIAAAAAAAAAAAAAAAEAgMAPAAAAAAAAAAAAAAAAAAAAAAAAAAAAAA==

> <PUBCHEM_IUPAC_OPENEYE_NAME>
3,3,8-trimethyldecane

> <PUBCHEM_IUPAC_CAS_NAME>
3,3,8-trimethyldecane

> <PUBCHEM_IUPAC_NAME_MARKUP>
3,3,8-trimethyldecane

> <PUBCHEM_IUPAC_NAME>
3,3,8-trimethyldecane

> <PUBCHEM_IUPAC_SYSTEMATIC_NAME>
3,3,8-trimethyldecane

> <PUBCHEM_IUPAC_TRADITIONAL_NAME>
3,3,8-trimethyldecane

> <PUBCHEM_IUPAC_INCHI>
InChI=1S/C13H28/c1-6-12(3)10-8-9-11-13(4,5)7-2/h12H,6-11H2,1-5H3

> <PUBCHEM_IUPAC_INCHIKEY>
IWDBBRKPCLWIKU-UHFFFAOYSA-N

> <PUBCHEM_XLOGP3_AA>
6.5

> <PUBCHEM_EXACT_MASS>
184.219100893

> <PUBCHEM_MOLECULAR_FORMULA>
C13H28

> <PUBCHEM_MOLECULAR_WEIGHT>
184.36

> <PUBCHEM_SMILES>
CCC(C)CCCCC(C)(C)CC

> <PUBCHEM_CONNECTIVITY_SMILES>
CCC(C)CCCCC(C)(C)CC

> <PUBCHEM_CACTVS_TPSA>
0

> <PUBCHEM_MONOISOTOPIC_WEIGHT>
184.219100893

> <PUBCHEM_TOTAL_CHARGE>
0

> <PUBCHEM_HEAVY_ATOM_COUNT>
13

> <PUBCHEM_ATOM_DEF_STEREO_COUNT>
0

> <PUBCHEM_ATOM_UDEF_STEREO_COUNT>
1

> <PUBCHEM_BOND_DEF_STEREO_COUNT>
0

> <PUBCHEM_BOND_UDEF_STEREO_COUNT>
0

> <PUBCHEM_ISOTOPIC_ATOM_COUNT>
0

> <PUBCHEM_COMPONENT_COUNT>
1

> <PUBCHEM_CACTVS_TAUTO_COUNT>
-1

> <PUBCHEM_COORDINATE_TYPE>
1
5
255

> <PUBCHEM_BONDANNOTATIONS>
7  12  3

$$$$
