4421864
  -OEChem-05122609202D

 15 16  0     0  0  0  0  0  0999 V2000
    5.2619   -0.0000    0.0000 S   0  0  0  0  0  0  0  0  0  0  0  0
    2.8660   -1.0000    0.0000 O   0  0  0  0  0  0  0  0  0  0  0  0
    2.8660    1.0000    0.0000 O   0  0  0  0  0  0  0  0  0  0  0  0
    2.0000   -0.5000    0.0000 C   0  0  0  0  0  0  0  0  0  0  0  0
    2.0000    0.5000    0.0000 C   0  0  0  0  0  0  0  0  0  0  0  0
    3.7321   -0.5000    0.0000 C   0  0  0  0  0  0  0  0  0  0  0  0
    3.7321    0.5000    0.0000 C   0  0  0  0  0  0  0  0  0  0  0  0
    4.6783   -0.8047    0.0000 C   0  0  0  0  0  0  0  0  0  0  0  0
    4.6783    0.8047    0.0000 C   0  0  0  0  0  0  0  0  0  0  0  0
    1.3894   -0.3923    0.0000 H   0  0  0  0  0  0  0  0  0  0  0  0
    1.7880   -1.0826    0.0000 H   0  0  0  0  0  0  0  0  0  0  0  0
    1.7880    1.0826    0.0000 H   0  0  0  0  0  0  0  0  0  0  0  0
    1.3894    0.3923    0.0000 H   0  0  0  0  0  0  0  0  0  0  0  0
    4.8709   -1.3941    0.0000 H   0  0  0  0  0  0  0  0  0  0  0  0
    4.8709    1.3941    0.0000 H   0  0  0  0  0  0  0  0  0  0  0  0
  1  8  1  0  0  0  0
  1  9  1  0  0  0  0
  2  4  1  0  0  0  0
  2  6  1  0  0  0  0
  3  5  1  0  0  0  0
  3  7  1  0  0  0  0
  4  5  1  0  0  0  0
  4 10  1  0  0  0  0
  4 11  1  0  0  0  0
  5 12  1  0  0  0  0
  5 13  1  0  0  0  0
  6  7  1  0  0  0  0
  6  8  2  0  0  0  0
  7  9  2  0  0  0  0
  8 14  1  0  0  0  0
  9 15  1  0  0  0  0
M  END
> <PUBCHEM_COMPOUND_CID>
4421864

> <PUBCHEM_COMPOUND_CANONICALIZED>
1

> <PUBCHEM_CACTVS_COMPLEXITY>
95.2

> <PUBCHEM_CACTVS_HBOND_ACCEPTOR>
3

> <PUBCHEM_CACTVS_HBOND_DONOR>
0

> <PUBCHEM_CACTVS_ROTATABLE_BOND>
0

> <PUBCHEM_CACTVS_SUBSKEYS>
AAADcYBgMABAAAAAAAAAAAAAAAAAASAAAAAkAAAAAAAAAEgBgAAAGgQAAAAACASk0AKgB4AABAiEAABCAAADCIAgKBAAiBIGiIgNJAAkIAgCCCKAAAAiIAAAAAAAAAAAAAAAAAAAAAAAAAAAAAAAAAAAAA==

> <PUBCHEM_IUPAC_OPENEYE_NAME>
2,3-dihydrothieno[3,4-b][1,4]dioxine

> <PUBCHEM_IUPAC_CAS_NAME>
2,3-dihydrothieno[3,4-b][1,4]dioxin

> <PUBCHEM_IUPAC_NAME_MARKUP>
2,3-dihydrothieno[3,4-b][1,4]dioxine

> <PUBCHEM_IUPAC_NAME>
2,3-dihydrothieno[3,4-b][1,4]dioxine

> <PUBCHEM_IUPAC_SYSTEMATIC_NAME>
2,3-dihydrothieno[3,4-b][1,4]dioxine

> <PUBCHEM_IUPAC_TRADITIONAL_NAME>
2,3-dihydrothieno[3,4-b][1,4]dioxin

> <PUBCHEM_IUPAC_INCHI>
InChI=1S/C6H6O2S/c1-2-8-6-4-9-3-5(6)7-1/h3-4H,1-2H2

> <PUBCHEM_IUPAC_INCHIKEY>
GKWLILHTTGWKLQ-UHFFFAOYSA-N

> <PUBCHEM_XLOGP3_AA>
1.3

> <PUBCHEM_EXACT_MASS>
142.00885060

> <PUBCHEM_MOLECULAR_FORMULA>
C6H6O2S

> <PUBCHEM_MOLECULAR_WEIGHT>
142.18

> <PUBCHEM_SMILES>
C1COC2=CSC=C2O1

> <PUBCHEM_CONNECTIVITY_SMILES>
C1COC2=CSC=C2O1

> <PUBCHEM_CACTVS_TPSA>
46.7

> <PUBCHEM_MONOISOTOPIC_WEIGHT>
142.00885060

> <PUBCHEM_TOTAL_CHARGE>
0

> <PUBCHEM_HEAVY_ATOM_COUNT>
9

> <PUBCHEM_ATOM_DEF_STEREO_COUNT>
0

> <PUBCHEM_ATOM_UDEF_STEREO_COUNT>
0

> <PUBCHEM_BOND_DEF_STEREO_COUNT>
0

> <PUBCHEM_BOND_UDEF_STEREO_COUNT>
0

> <PUBCHEM_ISOTOPIC_ATOM_COUNT>
0

> <PUBCHEM_COMPONENT_COUNT>
1

> <PUBCHEM_CACTVS_TAUTO_COUNT>
-1

> <PUBCHEM_COORDINATE_TYPE>
1
5
255

> <PUBCHEM_BONDANNOTATIONS>
1  8  8
1  9  8
6  7  8
6  8  8
7  9  8

$$$$
