45472
  -OEChem-05122608532D

 23 24  0     0  0  0  0  0  0999 V2000
    2.0000   -0.5000    0.0000 Br  0  0  0  0  0  0  0  0  0  0  0  0
    5.4641   -0.5000    0.0000 Br  0  0  0  0  0  0  0  0  0  0  0  0
    3.7321    2.5000    0.0000 Br  0  0  0  0  0  0  0  0  0  0  0  0
    5.4641   -2.5000    0.0000 Br  0  0  0  0  0  0  0  0  0  0  0  0
    2.0000   -2.5000    0.0000 Br  0  0  0  0  0  0  0  0  0  0  0  0
    3.7321   -3.5000    0.0000 Br  0  0  0  0  0  0  0  0  0  0  0  0
    5.4641    3.5000    0.0000 Br  0  0  0  0  0  0  0  0  0  0  0  0
    7.1962    0.5000    0.0000 Br  0  0  0  0  0  0  0  0  0  0  0  0
    7.1962    2.5000    0.0000 Br  0  0  0  0  0  0  0  0  0  0  0  0
    3.7321    0.5000    0.0000 O   0  0  0  0  0  0  0  0  0  0  0  0
    3.7321   -0.5000    0.0000 C   0  0  0  0  0  0  0  0  0  0  0  0
    4.5981    1.0000    0.0000 C   0  0  0  0  0  0  0  0  0  0  0  0
    2.8660   -1.0000    0.0000 C   0  0  0  0  0  0  0  0  0  0  0  0
    4.5981   -1.0000    0.0000 C   0  0  0  0  0  0  0  0  0  0  0  0
    4.5981    2.0000    0.0000 C   0  0  0  0  0  0  0  0  0  0  0  0
    5.4641    0.5000    0.0000 C   0  0  0  0  0  0  0  0  0  0  0  0
    4.5981   -2.0000    0.0000 C   0  0  0  0  0  0  0  0  0  0  0  0
    2.8660   -2.0000    0.0000 C   0  0  0  0  0  0  0  0  0  0  0  0
    3.7321   -2.5000    0.0000 C   0  0  0  0  0  0  0  0  0  0  0  0
    5.4641    2.5000    0.0000 C   0  0  0  0  0  0  0  0  0  0  0  0
    6.3301    1.0000    0.0000 C   0  0  0  0  0  0  0  0  0  0  0  0
    6.3301    2.0000    0.0000 C   0  0  0  0  0  0  0  0  0  0  0  0
    5.4641   -0.1200    0.0000 H   0  0  0  0  0  0  0  0  0  0  0  0
  1 13  1  0  0  0  0
  2 14  1  0  0  0  0
  3 15  1  0  0  0  0
  4 17  1  0  0  0  0
  5 18  1  0  0  0  0
  6 19  1  0  0  0  0
  7 20  1  0  0  0  0
  8 21  1  0  0  0  0
  9 22  1  0  0  0  0
 10 11  1  0  0  0  0
 10 12  1  0  0  0  0
 11 13  2  0  0  0  0
 11 14  1  0  0  0  0
 12 15  1  0  0  0  0
 12 16  2  0  0  0  0
 13 18  1  0  0  0  0
 14 17  2  0  0  0  0
 15 20  2  0  0  0  0
 16 21  1  0  0  0  0
 16 23  1  0  0  0  0
 17 19  1  0  0  0  0
 18 19  2  0  0  0  0
 20 22  1  0  0  0  0
 21 22  2  0  0  0  0
M  END
> <PUBCHEM_COMPOUND_CID>
45472

> <PUBCHEM_COMPOUND_CANONICALIZED>
1

> <PUBCHEM_CACTVS_COMPLEXITY>
370

> <PUBCHEM_CACTVS_HBOND_ACCEPTOR>
1

> <PUBCHEM_CACTVS_HBOND_DONOR>
0

> <PUBCHEM_CACTVS_ROTATABLE_BOND>
2

> <PUBCHEM_CACTVS_SUBSKEYS>
AAADcQBwIAAAHAAAAAAAAAAAAAAAAAAAAAAwYAAAAAAAAAABQAAAGgBAAAABqASAkAAwBoAABACAACBCAAACCAAgIAQAiAAGCKgMJiKEMBqCOCCkwBEIqheAQAAAABAEAIAgBAEAIAgBAEAIAgAAAAAAAA==

> <PUBCHEM_IUPAC_OPENEYE_NAME>
1,2,3,4,5-pentabromo-6-(2,3,4,5-tetrabromophenoxy)benzene

> <PUBCHEM_IUPAC_CAS_NAME>
1,2,3,4,5-pentabromo-6-(2,3,4,5-tetrabromophenoxy)benzene

> <PUBCHEM_IUPAC_NAME_MARKUP>
1,2,3,4,5-pentabromo-6-(2,3,4,5-tetrabromophenoxy)benzene

> <PUBCHEM_IUPAC_NAME>
1,2,3,4,5-pentabromo-6-(2,3,4,5-tetrabromophenoxy)benzene

> <PUBCHEM_IUPAC_SYSTEMATIC_NAME>
1,2,3,4,5-pentakis(bromanyl)-6-[2,3,4,5-tetrakis(bromanyl)phenoxy]benzene

> <PUBCHEM_IUPAC_TRADITIONAL_NAME>
1,2,3,4,5-pentabromo-6-(2,3,4,5-tetrabromophenoxy)benzene

> <PUBCHEM_IUPAC_INCHI>
InChI=1S/C12HBr9O/c13-2-1-3(5(15)6(16)4(2)14)22-12-10(20)8(18)7(17)9(19)11(12)21/h1H

> <PUBCHEM_IUPAC_INCHIKEY>
CYRHBNRLQMLULE-UHFFFAOYSA-N

> <PUBCHEM_XLOGP3_AA>
9.7

> <PUBCHEM_EXACT_MASS>
879.25958

> <PUBCHEM_MOLECULAR_FORMULA>
C12HBr9O

> <PUBCHEM_MOLECULAR_WEIGHT>
880.3

> <PUBCHEM_SMILES>
C1=C(C(=C(C(=C1Br)Br)Br)Br)OC2=C(C(=C(C(=C2Br)Br)Br)Br)Br

> <PUBCHEM_CONNECTIVITY_SMILES>
C1=C(C(=C(C(=C1Br)Br)Br)Br)OC2=C(C(=C(C(=C2Br)Br)Br)Br)Br

> <PUBCHEM_CACTVS_TPSA>
9.2

> <PUBCHEM_MONOISOTOPIC_WEIGHT>
871.26778

> <PUBCHEM_TOTAL_CHARGE>
0

> <PUBCHEM_HEAVY_ATOM_COUNT>
22

> <PUBCHEM_ATOM_DEF_STEREO_COUNT>
0

> <PUBCHEM_ATOM_UDEF_STEREO_COUNT>
0

> <PUBCHEM_BOND_DEF_STEREO_COUNT>
0

> <PUBCHEM_BOND_UDEF_STEREO_COUNT>
0

> <PUBCHEM_ISOTOPIC_ATOM_COUNT>
0

> <PUBCHEM_COMPONENT_COUNT>
1

> <PUBCHEM_CACTVS_TAUTO_COUNT>
-1

> <PUBCHEM_COORDINATE_TYPE>
1
5
255

> <PUBCHEM_BONDANNOTATIONS>
11  13  8
11  14  8
12  15  8
12  16  8
13  18  8
14  17  8
15  20  8
16  21  8
17  19  8
18  19  8
20  22  8
21  22  8

$$$$
