46200458
  -OEChem-05122609302D

 59 58  0     1  0  0  0  0  0999 V2000
   10.6603    1.5000    0.0000 O   0  0  0  0  0  0  0  0  0  0  0  0
   11.5263    3.0000    0.0000 O   0  0  0  0  0  0  0  0  0  0  0  0
    8.9282    1.5000    0.0000 C   0  0  3  0  0  0  0  0  0  0  0  0
    8.0622    2.0000    0.0000 C   0  0  0  0  0  0  0  0  0  0  0  0
    8.9282    0.5000    0.0000 C   0  0  0  0  0  0  0  0  0  0  0  0
    7.1962    1.5000    0.0000 C   0  0  0  0  0  0  0  0  0  0  0  0
    8.0622    0.0000    0.0000 C   0  0  0  0  0  0  0  0  0  0  0  0
    6.3301    2.0000    0.0000 C   0  0  0  0  0  0  0  0  0  0  0  0
    9.7942    2.0000    0.0000 C   0  0  0  0  0  0  0  0  0  0  0  0
    8.0622   -1.0000    0.0000 C   0  0  0  0  0  0  0  0  0  0  0  0
    5.4641    1.5000    0.0000 C   0  0  0  0  0  0  0  0  0  0  0  0
    4.5981    2.0000    0.0000 C   0  0  0  0  0  0  0  0  0  0  0  0
    7.1962   -1.5000    0.0000 C   0  0  0  0  0  0  0  0  0  0  0  0
    3.7320    1.5000    0.0000 C   0  0  0  0  0  0  0  0  0  0  0  0
    7.1962   -2.5000    0.0000 C   0  0  0  0  0  0  0  0  0  0  0  0
    2.8660    2.0000    0.0000 C   0  0  0  0  0  0  0  0  0  0  0  0
    6.3301   -3.0000    0.0000 C   0  0  0  0  0  0  0  0  0  0  0  0
   11.5263    2.0000    0.0000 C   0  0  0  0  0  0  0  0  0  0  0  0
    2.0000    1.5000    0.0000 C   0  0  0  0  0  0  0  0  0  0  0  0
   12.3923    1.5000    0.0000 C   0  0  0  0  0  0  0  0  0  0  0  0
   13.2583    2.0000    0.0000 C   0  0  0  0  0  0  0  0  0  0  0  0
    9.4651    1.1900    0.0000 H   0  0  0  0  0  0  0  0  0  0  0  0
    8.4607    2.4750    0.0000 H   0  0  0  0  0  0  0  0  0  0  0  0
    7.6636    2.4750    0.0000 H   0  0  0  0  0  0  0  0  0  0  0  0
    9.1403   -0.0826    0.0000 H   0  0  0  0  0  0  0  0  0  0  0  0
    9.5388    0.6077    0.0000 H   0  0  0  0  0  0  0  0  0  0  0  0
    6.7976    1.0250    0.0000 H   0  0  0  0  0  0  0  0  0  0  0  0
    7.5947    1.0250    0.0000 H   0  0  0  0  0  0  0  0  0  0  0  0
    7.8501    0.5826    0.0000 H   0  0  0  0  0  0  0  0  0  0  0  0
    7.4516   -0.1077    0.0000 H   0  0  0  0  0  0  0  0  0  0  0  0
    6.7287    2.4750    0.0000 H   0  0  0  0  0  0  0  0  0  0  0  0
    5.9316    2.4750    0.0000 H   0  0  0  0  0  0  0  0  0  0  0  0
   10.1928    2.4750    0.0000 H   0  0  0  0  0  0  0  0  0  0  0  0
    9.3957    2.4750    0.0000 H   0  0  0  0  0  0  0  0  0  0  0  0
    8.2742   -1.5826    0.0000 H   0  0  0  0  0  0  0  0  0  0  0  0
    8.6728   -0.8923    0.0000 H   0  0  0  0  0  0  0  0  0  0  0  0
    5.0656    1.0250    0.0000 H   0  0  0  0  0  0  0  0  0  0  0  0
    5.8626    1.0250    0.0000 H   0  0  0  0  0  0  0  0  0  0  0  0
    4.9966    2.4750    0.0000 H   0  0  0  0  0  0  0  0  0  0  0  0
    4.1996    2.4750    0.0000 H   0  0  0  0  0  0  0  0  0  0  0  0
    6.9841   -0.9174    0.0000 H   0  0  0  0  0  0  0  0  0  0  0  0
    6.5856   -1.6077    0.0000 H   0  0  0  0  0  0  0  0  0  0  0  0
    3.3335    1.0250    0.0000 H   0  0  0  0  0  0  0  0  0  0  0  0
    4.1306    1.0250    0.0000 H   0  0  0  0  0  0  0  0  0  0  0  0
    7.4082   -3.0826    0.0000 H   0  0  0  0  0  0  0  0  0  0  0  0
    7.8067   -2.3923    0.0000 H   0  0  0  0  0  0  0  0  0  0  0  0
    3.2646    2.4750    0.0000 H   0  0  0  0  0  0  0  0  0  0  0  0
    2.4675    2.4750    0.0000 H   0  0  0  0  0  0  0  0  0  0  0  0
    6.0201   -2.4631    0.0000 H   0  0  0  0  0  0  0  0  0  0  0  0
    5.7932   -3.3100    0.0000 H   0  0  0  0  0  0  0  0  0  0  0  0
    6.6401   -3.5369    0.0000 H   0  0  0  0  0  0  0  0  0  0  0  0
    1.6900    2.0369    0.0000 H   0  0  0  0  0  0  0  0  0  0  0  0
    1.4631    1.1900    0.0000 H   0  0  0  0  0  0  0  0  0  0  0  0
    2.3100    0.9631    0.0000 H   0  0  0  0  0  0  0  0  0  0  0  0
   11.9938    1.0250    0.0000 H   0  0  0  0  0  0  0  0  0  0  0  0
   12.7908    1.0250    0.0000 H   0  0  0  0  0  0  0  0  0  0  0  0
   13.5683    1.4631    0.0000 H   0  0  0  0  0  0  0  0  0  0  0  0
   13.7953    2.3100    0.0000 H   0  0  0  0  0  0  0  0  0  0  0  0
   12.9483    2.5369    0.0000 H   0  0  0  0  0  0  0  0  0  0  0  0
  1  9  1  0  0  0  0
  1 18  1  0  0  0  0
  2 18  2  0  0  0  0
  3  4  1  0  0  0  0
  3  5  1  0  0  0  0
  3  9  1  0  0  0  0
  3 22  1  0  0  0  0
  4  6  1  0  0  0  0
  4 23  1  0  0  0  0
  4 24  1  0  0  0  0
  5  7  1  0  0  0  0
  5 25  1  0  0  0  0
  5 26  1  0  0  0  0
  6  8  1  0  0  0  0
  6 27  1  0  0  0  0
  6 28  1  0  0  0  0
  7 10  1  0  0  0  0
  7 29  1  0  0  0  0
  7 30  1  0  0  0  0
  8 11  1  0  0  0  0
  8 31  1  0  0  0  0
  8 32  1  0  0  0  0
  9 33  1  0  0  0  0
  9 34  1  0  0  0  0
 10 13  1  0  0  0  0
 10 35  1  0  0  0  0
 10 36  1  0  0  0  0
 11 12  1  0  0  0  0
 11 37  1  0  0  0  0
 11 38  1  0  0  0  0
 12 14  1  0  0  0  0
 12 39  1  0  0  0  0
 12 40  1  0  0  0  0
 13 15  1  0  0  0  0
 13 41  1  0  0  0  0
 13 42  1  0  0  0  0
 14 16  1  0  0  0  0
 14 43  1  0  0  0  0
 14 44  1  0  0  0  0
 15 17  1  0  0  0  0
 15 45  1  0  0  0  0
 15 46  1  0  0  0  0
 16 19  1  0  0  0  0
 16 47  1  0  0  0  0
 16 48  1  0  0  0  0
 17 49  1  0  0  0  0
 17 50  1  0  0  0  0
 17 51  1  0  0  0  0
 18 20  1  0  0  0  0
 19 52  1  0  0  0  0
 19 53  1  0  0  0  0
 19 54  1  0  0  0  0
 20 21  1  0  0  0  0
 20 55  1  0  0  0  0
 20 56  1  0  0  0  0
 21 57  1  0  0  0  0
 21 58  1  0  0  0  0
 21 59  1  0  0  0  0
M  END
> <PUBCHEM_COMPOUND_CID>
46200458

> <PUBCHEM_COMPOUND_CANONICALIZED>
1

> <PUBCHEM_CACTVS_COMPLEXITY>
226

> <PUBCHEM_CACTVS_HBOND_ACCEPTOR>
2

> <PUBCHEM_CACTVS_HBOND_DONOR>
0

> <PUBCHEM_CACTVS_ROTATABLE_BOND>
16

> <PUBCHEM_CACTVS_SUBSKEYS>
AAADcfB4MAAAAAAAAAAAAAAAAAAAAAAAAAAAAAAAAAAAAAAAAAAAGgAAAAAADQCggAICCAAABAAIAACQCAAAAAAAAAAAAAEAAAAAAAIAAAACAAAEAAAAAAGAwOAOAAAAAAAAAAAAAAAAAAAAAAAAAAAAAA==

> <PUBCHEM_IUPAC_OPENEYE_NAME>
2-hexyldecyl propanoate

> <PUBCHEM_IUPAC_CAS_NAME>
propanoic acid 2-hexyldecyl ester

> <PUBCHEM_IUPAC_NAME_MARKUP>
2-hexyldecyl propanoate

> <PUBCHEM_IUPAC_NAME>
2-hexyldecyl propanoate

> <PUBCHEM_IUPAC_SYSTEMATIC_NAME>
2-hexyldecyl propanoate

> <PUBCHEM_IUPAC_TRADITIONAL_NAME>
propionic acid 2-hexyldecyl ester

> <PUBCHEM_IUPAC_INCHI>
InChI=1S/C19H38O2/c1-4-7-9-11-12-14-16-18(15-13-10-8-5-2)17-21-19(20)6-3/h18H,4-17H2,1-3H3

> <PUBCHEM_IUPAC_INCHIKEY>
MFSPONRQRBPASH-UHFFFAOYSA-N

> <PUBCHEM_XLOGP3_AA>
8

> <PUBCHEM_EXACT_MASS>
298.287180451

> <PUBCHEM_MOLECULAR_FORMULA>
C19H38O2

> <PUBCHEM_MOLECULAR_WEIGHT>
298.5

> <PUBCHEM_SMILES>
CCCCCCCCC(CCCCCC)COC(=O)CC

> <PUBCHEM_CONNECTIVITY_SMILES>
CCCCCCCCC(CCCCCC)COC(=O)CC

> <PUBCHEM_CACTVS_TPSA>
26.3

> <PUBCHEM_MONOISOTOPIC_WEIGHT>
298.287180451

> <PUBCHEM_TOTAL_CHARGE>
0

> <PUBCHEM_HEAVY_ATOM_COUNT>
21

> <PUBCHEM_ATOM_DEF_STEREO_COUNT>
0

> <PUBCHEM_ATOM_UDEF_STEREO_COUNT>
1

> <PUBCHEM_BOND_DEF_STEREO_COUNT>
0

> <PUBCHEM_BOND_UDEF_STEREO_COUNT>
0

> <PUBCHEM_ISOTOPIC_ATOM_COUNT>
0

> <PUBCHEM_COMPONENT_COUNT>
1

> <PUBCHEM_CACTVS_TAUTO_COUNT>
-1

> <PUBCHEM_COORDINATE_TYPE>
1
5
255

> <PUBCHEM_BONDANNOTATIONS>
3  5  3

$$$$
