464205
  -OEChem-05122608152D

 33 34  0     1  0  0  0  0  0999 V2000
    7.5673   -2.6502    0.0000 P   0  0  0  0  0  0  0  0  0  0  0  0
    6.2781   -1.4934    0.0000 O   0  0  0  0  0  0  0  0  0  0  0  0
    7.8779   -3.6007    0.0000 O   0  0  0  0  0  0  0  0  0  0  0  0
    8.5178   -2.3395    0.0000 O   0  0  0  0  0  0  0  0  0  0  0  0
    6.6168   -2.9608    0.0000 O   0  0  0  0  0  0  0  0  0  0  0  0
    4.6783    0.6138    0.0000 N   0  0  0  0  0  0  0  0  0  0  0  0
    4.6783    2.2233    0.0000 N   0  0  0  0  0  0  0  0  0  0  0  0
    2.8660    0.4186    0.0000 N   0  0  0  0  0  0  0  0  0  0  0  0
    2.0000    1.9186    0.0000 N   0  0  0  0  0  0  0  0  0  0  0  0
    2.8660    3.4186    0.0000 N   0  0  0  0  0  0  0  0  0  0  0  0
    5.9674   -0.5429    0.0000 C   0  0  1  0  0  0  0  0  0  0  0  0
    4.9889   -0.3367    0.0000 C   0  0  0  0  0  0  0  0  0  0  0  0
    3.7321    0.9186    0.0000 C   0  0  0  0  0  0  0  0  0  0  0  0
    6.6353    0.2014    0.0000 C   0  0  0  0  0  0  0  0  0  0  0  0
    3.7321    1.9186    0.0000 C   0  0  0  0  0  0  0  0  0  0  0  0
    5.2619    1.4186    0.0000 C   0  0  0  0  0  0  0  0  0  0  0  0
    7.2566   -1.6997    0.0000 C   0  0  0  0  0  0  0  0  0  0  0  0
    2.8660    2.4186    0.0000 C   0  0  0  0  0  0  0  0  0  0  0  0
    2.0000    0.9186    0.0000 C   0  0  0  0  0  0  0  0  0  0  0  0
    5.5534   -1.0044    0.0000 H   0  0  0  0  0  0  0  0  0  0  0  0
    4.3751   -0.4240    0.0000 H   0  0  0  0  0  0  0  0  0  0  0  0
    4.9684   -0.9564    0.0000 H   0  0  0  0  0  0  0  0  0  0  0  0
    7.0968   -0.2127    0.0000 H   0  0  0  0  0  0  0  0  0  0  0  0
    7.0494    0.6629    0.0000 H   0  0  0  0  0  0  0  0  0  0  0  0
    6.1738    0.6154    0.0000 H   0  0  0  0  0  0  0  0  0  0  0  0
    5.8819    1.4186    0.0000 H   0  0  0  0  0  0  0  0  0  0  0  0
    7.8704   -1.6123    0.0000 H   0  0  0  0  0  0  0  0  0  0  0  0
    7.2772   -1.0800    0.0000 H   0  0  0  0  0  0  0  0  0  0  0  0
    1.4631    0.6086    0.0000 H   0  0  0  0  0  0  0  0  0  0  0  0
    2.3291    3.7286    0.0000 H   0  0  0  0  0  0  0  0  0  0  0  0
    3.4030    3.7286    0.0000 H   0  0  0  0  0  0  0  0  0  0  0  0
    8.4846   -3.7286    0.0000 H   0  0  0  0  0  0  0  0  0  0  0  0
    8.6457   -1.7328    0.0000 H   0  0  0  0  0  0  0  0  0  0  0  0
  1  3  1  0  0  0  0
  1  4  1  0  0  0  0
  1  5  2  0  0  0  0
  1 17  1  0  0  0  0
 11  2  1  1  0  0  0
  2 17  1  0  0  0  0
  3 32  1  0  0  0  0
  4 33  1  0  0  0  0
  6 12  1  0  0  0  0
  6 13  1  0  0  0  0
  6 16  1  0  0  0  0
  7 15  1  0  0  0  0
  7 16  2  0  0  0  0
  8 13  2  0  0  0  0
  8 19  1  0  0  0  0
  9 18  1  0  0  0  0
  9 19  2  0  0  0  0
 10 18  1  0  0  0  0
 10 30  1  0  0  0  0
 10 31  1  0  0  0  0
 11 12  1  0  0  0  0
 11 14  1  0  0  0  0
 11 20  1  0  0  0  0
 12 21  1  0  0  0  0
 12 22  1  0  0  0  0
 13 15  1  0  0  0  0
 14 23  1  0  0  0  0
 14 24  1  0  0  0  0
 14 25  1  0  0  0  0
 15 18  2  0  0  0  0
 16 26  1  0  0  0  0
 17 27  1  0  0  0  0
 17 28  1  0  0  0  0
 19 29  1  0  0  0  0
M  END
> <PUBCHEM_COMPOUND_CID>
464205

> <PUBCHEM_COMPOUND_CANONICALIZED>
1

> <PUBCHEM_CACTVS_COMPLEXITY>
354

> <PUBCHEM_CACTVS_HBOND_ACCEPTOR>
8

> <PUBCHEM_CACTVS_HBOND_DONOR>
3

> <PUBCHEM_CACTVS_ROTATABLE_BOND>
5

> <PUBCHEM_CACTVS_SUBSKEYS>
AAADccBzuAIAAAAAAAAAAAAAAAAAAWAAAAAsAAAAAAAAAFgB+AAAHggQCCAACBzhlwYH8L9MFBCgQQZhZICAgC0REKABUCAoVBCCSABASEAVBAgIAALQACAAAAAAAAAAAAAAAAAAAAAAAAAAAAAAAAAAAA==

> <PUBCHEM_IUPAC_OPENEYE_NAME>
[(1R)-2-(6-aminopurin-9-yl)-1-methyl-ethoxy]methylphosphonic acid

> <PUBCHEM_IUPAC_CAS_NAME>
[(2R)-1-(6-aminopurin-9-yl)propan-2-yl]oxymethylphosphonic acid

> <PUBCHEM_IUPAC_NAME_MARKUP>
[(2<I>R</I>)-1-(6-aminopurin-9-yl)propan-2-yl]oxymethylphosphonic acid

> <PUBCHEM_IUPAC_NAME>
[(2R)-1-(6-aminopurin-9-yl)propan-2-yl]oxymethylphosphonic acid

> <PUBCHEM_IUPAC_SYSTEMATIC_NAME>
[(2R)-1-(6-aminopurin-9-yl)propan-2-yl]oxymethylphosphonic acid

> <PUBCHEM_IUPAC_TRADITIONAL_NAME>
[(1R)-2-adenin-9-yl-1-methyl-ethoxy]methylphosphonic acid

> <PUBCHEM_IUPAC_INCHI>
InChI=1S/C9H14N5O4P/c1-6(18-5-19(15,16)17)2-14-4-13-7-8(10)11-3-12-9(7)14/h3-4,6H,2,5H2,1H3,(H2,10,11,12)(H2,15,16,17)/t6-/m1/s1

> <PUBCHEM_IUPAC_INCHIKEY>
SGOIRFVFHAKUTI-ZCFIWIBFSA-N

> <PUBCHEM_XLOGP3>
-1.6

> <PUBCHEM_EXACT_MASS>
287.07834094

> <PUBCHEM_MOLECULAR_FORMULA>
C9H14N5O4P

> <PUBCHEM_MOLECULAR_WEIGHT>
287.21

> <PUBCHEM_SMILES>
C[C@H](CN1C=NC2=C(N=CN=C21)N)OCP(=O)(O)O

> <PUBCHEM_CONNECTIVITY_SMILES>
CC(CN1C=NC2=C(N=CN=C21)N)OCP(=O)(O)O

> <PUBCHEM_CACTVS_TPSA>
136

> <PUBCHEM_MONOISOTOPIC_WEIGHT>
287.07834094

> <PUBCHEM_TOTAL_CHARGE>
0

> <PUBCHEM_HEAVY_ATOM_COUNT>
19

> <PUBCHEM_ATOM_DEF_STEREO_COUNT>
1

> <PUBCHEM_ATOM_UDEF_STEREO_COUNT>
0

> <PUBCHEM_BOND_DEF_STEREO_COUNT>
0

> <PUBCHEM_BOND_UDEF_STEREO_COUNT>
0

> <PUBCHEM_ISOTOPIC_ATOM_COUNT>
0

> <PUBCHEM_COMPONENT_COUNT>
1

> <PUBCHEM_CACTVS_TAUTO_COUNT>
-1

> <PUBCHEM_COORDINATE_TYPE>
1
5
255

> <PUBCHEM_BONDANNOTATIONS>
13  15  8
15  18  8
11  2  5
6  13  8
6  16  8
7  15  8
7  16  8
8  13  8
8  19  8
9  18  8
9  19  8

$$$$
