47367
  -OEChem-08032615232D

 22 24  0     0  0  0  0  0  0999 V2000
    3.7817   -2.0346    0.0000 Cl  0  0  0  0  0  0  0  0  0  0  0  0
    7.2785    2.0346    0.0000 Cl  0  0  0  0  0  0  0  0  0  0  0  0
    7.2785   -2.0346    0.0000 Cl  0  0  0  0  0  0  0  0  0  0  0  0
    2.0000   -1.0241    0.0000 Cl  0  0  0  0  0  0  0  0  0  0  0  0
    2.0000    1.0241    0.0000 Cl  0  0  0  0  0  0  0  0  0  0  0  0
    9.0602    1.0241    0.0000 Cl  0  0  0  0  0  0  0  0  0  0  0  0
    5.5301   -1.0000    0.0000 O   0  0  0  0  0  0  0  0  0  0  0  0
    5.5301    1.0000    0.0000 O   0  0  0  0  0  0  0  0  0  0  0  0
    4.6641   -0.5000    0.0000 C   0  0  0  0  0  0  0  0  0  0  0  0
    4.6641    0.5000    0.0000 C   0  0  0  0  0  0  0  0  0  0  0  0
    6.3961   -0.5000    0.0000 C   0  0  0  0  0  0  0  0  0  0  0  0
    6.3961    0.5000    0.0000 C   0  0  0  0  0  0  0  0  0  0  0  0
    3.7702   -1.0347    0.0000 C   0  0  0  0  0  0  0  0  0  0  0  0
    3.7702    1.0347    0.0000 C   0  0  0  0  0  0  0  0  0  0  0  0
    7.2901    1.0347    0.0000 C   0  0  0  0  0  0  0  0  0  0  0  0
    7.2901   -1.0347    0.0000 C   0  0  0  0  0  0  0  0  0  0  0  0
    2.8641   -0.5208    0.0000 C   0  0  0  0  0  0  0  0  0  0  0  0
    2.8641    0.5208    0.0000 C   0  0  0  0  0  0  0  0  0  0  0  0
    8.1962    0.5208    0.0000 C   0  0  0  0  0  0  0  0  0  0  0  0
    8.1962   -0.5208    0.0000 C   0  0  0  0  0  0  0  0  0  0  0  0
    3.7773    1.6546    0.0000 H   0  0  0  0  0  0  0  0  0  0  0  0
    8.7319   -0.8329    0.0000 H   0  0  0  0  0  0  0  0  0  0  0  0
  1 13  1  0  0  0  0
  2 15  1  0  0  0  0
  3 16  1  0  0  0  0
  4 17  1  0  0  0  0
  5 18  1  0  0  0  0
  6 19  1  0  0  0  0
  7  9  1  0  0  0  0
  7 11  1  0  0  0  0
  8 10  1  0  0  0  0
  8 12  1  0  0  0  0
  9 10  1  0  0  0  0
  9 13  2  0  0  0  0
 10 14  2  0  0  0  0
 11 12  2  0  0  0  0
 11 16  1  0  0  0  0
 12 15  1  0  0  0  0
 13 17  1  0  0  0  0
 14 18  1  0  0  0  0
 14 21  1  0  0  0  0
 15 19  2  0  0  0  0
 16 20  2  0  0  0  0
 17 18  2  0  0  0  0
 19 20  1  0  0  0  0
 20 22  1  0  0  0  0
M  END
> <PUBCHEM_COMPOUND_CID>
47367

> <PUBCHEM_COMPOUND_CANONICALIZED>
1

> <PUBCHEM_CACTVS_COMPLEXITY>
372

> <PUBCHEM_CACTVS_HBOND_ACCEPTOR>
2

> <PUBCHEM_CACTVS_HBOND_DONOR>
0

> <PUBCHEM_CACTVS_ROTATABLE_BOND>
0

> <PUBCHEM_CACTVS_SUBSKEYS>
AAADcQBwMAAHAAAAAAAAAAAAAAAAAAAAAAA0YIAAAAAAAACRQAAAGgIAAAAACAaAkCAwBoAABACAACBCAAACCAAgJUAAikAGi4gNJiOFMhqCOCKkwBEKqAeAQAAAACAQAQCASAQAQCACAQCQCAAAAAAAAA==

> <PUBCHEM_IUPAC_OPENEYE_NAME>
1,2,3,6,7,9-hexachlorodibenzo-p-dioxin

> <PUBCHEM_IUPAC_CAS_NAME>
1,2,3,6,7,9-hexachlorodibenzo-p-dioxin

> <PUBCHEM_IUPAC_NAME_MARKUP>
1,2,3,6,7,9-hexachlorodibenzo-p-dioxin

> <PUBCHEM_IUPAC_NAME>
1,2,3,6,7,9-hexachlorodibenzo-p-dioxin

> <PUBCHEM_IUPAC_SYSTEMATIC_NAME>
1,2,3,6,7,9-hexakis(chloranyl)dibenzo-p-dioxin

> <PUBCHEM_IUPAC_TRADITIONAL_NAME>
1,2,3,6,7,9-hexachlorodibenzo-p-dioxin

> <PUBCHEM_IUPAC_INCHI>
InChI=1S/C12H2Cl6O2/c13-3-1-5(15)10-12(8(3)17)19-6-2-4(14)7(16)9(18)11(6)20-10/h1-2H

> <PUBCHEM_IUPAC_INCHIKEY>
BQOHWGKNRKCEFT-UHFFFAOYSA-N

> <PUBCHEM_XLOGP3>
6.9

> <PUBCHEM_EXACT_MASS>
389.815645

> <PUBCHEM_MOLECULAR_FORMULA>
C12H2Cl6O2

> <PUBCHEM_MOLECULAR_WEIGHT>
390.9

> <PUBCHEM_SMILES>
C1=C2C(=C(C(=C1Cl)Cl)Cl)OC3=C(O2)C(=C(C=C3Cl)Cl)Cl

> <PUBCHEM_CONNECTIVITY_SMILES>
C1=C2C(=C(C(=C1Cl)Cl)Cl)OC3=C(O2)C(=C(C=C3Cl)Cl)Cl

> <PUBCHEM_CACTVS_TPSA>
18.5

> <PUBCHEM_MONOISOTOPIC_WEIGHT>
387.818595

> <PUBCHEM_TOTAL_CHARGE>
0

> <PUBCHEM_HEAVY_ATOM_COUNT>
20

> <PUBCHEM_ATOM_DEF_STEREO_COUNT>
0

> <PUBCHEM_ATOM_UDEF_STEREO_COUNT>
0

> <PUBCHEM_BOND_DEF_STEREO_COUNT>
0

> <PUBCHEM_BOND_UDEF_STEREO_COUNT>
0

> <PUBCHEM_ISOTOPIC_ATOM_COUNT>
0

> <PUBCHEM_COMPONENT_COUNT>
1

> <PUBCHEM_CACTVS_TAUTO_COUNT>
-1

> <PUBCHEM_COORDINATE_TYPE>
1
5
255

> <PUBCHEM_BONDANNOTATIONS>
10  14  8
11  12  8
11  16  8
12  15  8
13  17  8
14  18  8
15  19  8
16  20  8
17  18  8
19  20  8
9  10  8
9  13  8

$$$$
