487243
  -OEChem-05122609152D

 25 24  0     0  0  0  0  0  0999 V2000
    6.8671    1.0600    0.0000 O   0  0  0  0  0  0  0  0  0  0  0  0
    5.1350   -1.9400    0.0000 O   0  0  0  0  0  0  0  0  0  0  0  0
    6.0010    2.5600    0.0000 O   0  0  0  0  0  0  0  0  0  0  0  0
    3.4030   -1.9400    0.0000 O   0  0  0  0  0  0  0  0  0  0  0  0
    2.5369    1.5600    0.0000 N   0  0  0  0  0  0  0  0  0  0  0  0
    3.4030    1.0600    0.0000 C   0  0  0  0  0  0  0  0  0  0  0  0
    4.2690    1.5600    0.0000 C   0  0  0  0  0  0  0  0  0  0  0  0
    3.4030    0.0600    0.0000 C   0  0  0  0  0  0  0  0  0  0  0  0
    5.1350    1.0600    0.0000 C   0  0  0  0  0  0  0  0  0  0  0  0
    4.2690   -0.4400    0.0000 C   0  0  0  0  0  0  0  0  0  0  0  0
    6.0010    1.5600    0.0000 C   0  0  0  0  0  0  0  0  0  0  0  0
    4.2690   -1.4400    0.0000 C   0  0  0  0  0  0  0  0  0  0  0  0
    3.4030    1.6800    0.0000 H   0  0  0  0  0  0  0  0  0  0  0  0
    4.6675    2.0350    0.0000 H   0  0  0  0  0  0  0  0  0  0  0  0
    3.8705    2.0350    0.0000 H   0  0  0  0  0  0  0  0  0  0  0  0
    2.7924    0.1677    0.0000 H   0  0  0  0  0  0  0  0  0  0  0  0
    3.1909   -0.5226    0.0000 H   0  0  0  0  0  0  0  0  0  0  0  0
    4.7365    0.5851    0.0000 H   0  0  0  0  0  0  0  0  0  0  0  0
    5.5335    0.5851    0.0000 H   0  0  0  0  0  0  0  0  0  0  0  0
    4.8796   -0.5477    0.0000 H   0  0  0  0  0  0  0  0  0  0  0  0
    4.4810    0.1426    0.0000 H   0  0  0  0  0  0  0  0  0  0  0  0
    2.0000    1.2500    0.0000 H   0  0  0  0  0  0  0  0  0  0  0  0
    2.5369    2.1800    0.0000 H   0  0  0  0  0  0  0  0  0  0  0  0
    7.4040    1.3700    0.0000 H   0  0  0  0  0  0  0  0  0  0  0  0
    5.1350   -2.5600    0.0000 H   0  0  0  0  0  0  0  0  0  0  0  0
  1 11  1  0  0  0  0
  1 24  1  0  0  0  0
  2 12  1  0  0  0  0
  2 25  1  0  0  0  0
  3 11  2  0  0  0  0
  4 12  2  0  0  0  0
  5  6  1  0  0  0  0
  5 22  1  0  0  0  0
  5 23  1  0  0  0  0
  6  7  1  0  0  0  0
  6  8  1  0  0  0  0
  6 13  1  0  0  0  0
  7  9  1  0  0  0  0
  7 14  1  0  0  0  0
  7 15  1  0  0  0  0
  8 10  1  0  0  0  0
  8 16  1  0  0  0  0
  8 17  1  0  0  0  0
  9 11  1  0  0  0  0
  9 18  1  0  0  0  0
  9 19  1  0  0  0  0
 10 12  1  0  0  0  0
 10 20  1  0  0  0  0
 10 21  1  0  0  0  0
M  END
> <PUBCHEM_COMPOUND_CID>
487243

> <PUBCHEM_COMPOUND_CANONICALIZED>
1

> <PUBCHEM_CACTVS_COMPLEXITY>
151

> <PUBCHEM_CACTVS_HBOND_ACCEPTOR>
5

> <PUBCHEM_CACTVS_HBOND_DONOR>
3

> <PUBCHEM_CACTVS_ROTATABLE_BOND>
6

> <PUBCHEM_CACTVS_SUBSKEYS>
AAADccBiOAAAAAAAAAAAAAAAAAAAAAAAAAAAAAAAAAAAAAAAAAAAHgAQCAAACCjBgAQACABAAgAIAACQCAAAAAAAAAAAAIEAAAAAABIAgAAAQAAEEAAAAAGsyCCAAAAAAAAAAAAAAAAAAAAAAAAAAAAAAA==

> <PUBCHEM_IUPAC_OPENEYE_NAME>
4-aminoheptanedioic acid

> <PUBCHEM_IUPAC_CAS_NAME>
4-aminoheptanedioic acid

> <PUBCHEM_IUPAC_NAME_MARKUP>
4-aminoheptanedioic acid

> <PUBCHEM_IUPAC_NAME>
4-aminoheptanedioic acid

> <PUBCHEM_IUPAC_SYSTEMATIC_NAME>
4-azanylheptanedioic acid

> <PUBCHEM_IUPAC_TRADITIONAL_NAME>
4-aminopimelic acid

> <PUBCHEM_IUPAC_INCHI>
InChI=1S/C7H13NO4/c8-5(1-3-6(9)10)2-4-7(11)12/h5H,1-4,8H2,(H,9,10)(H,11,12)

> <PUBCHEM_IUPAC_INCHIKEY>
DMAJAXIBHLWSQM-UHFFFAOYSA-N

> <PUBCHEM_XLOGP3_AA>
-3.2

> <PUBCHEM_EXACT_MASS>
175.08445790

> <PUBCHEM_MOLECULAR_FORMULA>
C7H13NO4

> <PUBCHEM_MOLECULAR_WEIGHT>
175.18

> <PUBCHEM_SMILES>
C(CC(=O)O)C(CCC(=O)O)N

> <PUBCHEM_CONNECTIVITY_SMILES>
C(CC(=O)O)C(CCC(=O)O)N

> <PUBCHEM_CACTVS_TPSA>
101

> <PUBCHEM_MONOISOTOPIC_WEIGHT>
175.08445790

> <PUBCHEM_TOTAL_CHARGE>
0

> <PUBCHEM_HEAVY_ATOM_COUNT>
12

> <PUBCHEM_ATOM_DEF_STEREO_COUNT>
0

> <PUBCHEM_ATOM_UDEF_STEREO_COUNT>
0

> <PUBCHEM_BOND_DEF_STEREO_COUNT>
0

> <PUBCHEM_BOND_UDEF_STEREO_COUNT>
0

> <PUBCHEM_ISOTOPIC_ATOM_COUNT>
0

> <PUBCHEM_COMPONENT_COUNT>
1

> <PUBCHEM_CACTVS_TAUTO_COUNT>
-1

> <PUBCHEM_COORDINATE_TYPE>
1
5
255

$$$$
