50851128
  -OEChem-05122609012D

 37 35  0     0  0  0  0  0  0999 V2000
    2.0000   -0.7500    0.0000 K   0  3  0  0  0  0  0  0  0  0  0  0
   14.1244    2.2500    0.0000 Cl  0  0  0  0  0  0  0  0  0  0  0  0
    3.7321   -0.7500    0.0000 S   0  0  0  0  0  0  0  0  0  0  0  0
    9.2942    0.6160    0.0000 F   0  0  0  0  0  0  0  0  0  0  0  0
   10.2942   -1.1160    0.0000 F   0  0  0  0  0  0  0  0  0  0  0  0
   10.1603    1.1160    0.0000 F   0  0  0  0  0  0  0  0  0  0  0  0
   11.1603   -0.6160    0.0000 F   0  0  0  0  0  0  0  0  0  0  0  0
    8.4282    0.1160    0.0000 F   0  0  0  0  0  0  0  0  0  0  0  0
    9.4282   -1.6160    0.0000 F   0  0  0  0  0  0  0  0  0  0  0  0
   12.0263   -0.1160    0.0000 F   0  0  0  0  0  0  0  0  0  0  0  0
   11.0263    1.6160    0.0000 F   0  0  0  0  0  0  0  0  0  0  0  0
    7.5622   -0.3840    0.0000 F   0  0  0  0  0  0  0  0  0  0  0  0
    8.5622   -2.1160    0.0000 F   0  0  0  0  0  0  0  0  0  0  0  0
   12.8923    0.3840    0.0000 F   0  0  0  0  0  0  0  0  0  0  0  0
   11.8923    2.1160    0.0000 F   0  0  0  0  0  0  0  0  0  0  0  0
    6.6962   -0.8840    0.0000 F   0  0  0  0  0  0  0  0  0  0  0  0
    7.6962   -2.6160    0.0000 F   0  0  0  0  0  0  0  0  0  0  0  0
   13.7583    0.8840    0.0000 F   0  0  0  0  0  0  0  0  0  0  0  0
   12.7583    2.6160    0.0000 F   0  0  0  0  0  0  0  0  0  0  0  0
    4.9641   -2.6160    0.0000 F   0  0  0  0  0  0  0  0  0  0  0  0
    5.9641   -0.8840    0.0000 F   0  0  0  0  0  0  0  0  0  0  0  0
    4.0981   -2.1160    0.0000 F   0  0  0  0  0  0  0  0  0  0  0  0
    5.0981   -0.3840    0.0000 F   0  0  0  0  0  0  0  0  0  0  0  0
    6.3301   -2.2500    0.0000 O   0  0  0  0  0  0  0  0  0  0  0  0
    2.8660   -0.2500    0.0000 O   0  5  0  0  0  0  0  0  0  0  0  0
    3.2321   -1.6160    0.0000 O   0  0  0  0  0  0  0  0  0  0  0  0
    4.2321    0.1160    0.0000 O   0  0  0  0  0  0  0  0  0  0  0  0
    9.7942   -0.2500    0.0000 C   0  0  0  0  0  0  0  0  0  0  0  0
   10.6603    0.2500    0.0000 C   0  0  0  0  0  0  0  0  0  0  0  0
    8.9282   -0.7500    0.0000 C   0  0  0  0  0  0  0  0  0  0  0  0
   11.5263    0.7500    0.0000 C   0  0  0  0  0  0  0  0  0  0  0  0
    8.0622   -1.2500    0.0000 C   0  0  0  0  0  0  0  0  0  0  0  0
   12.3923    1.2500    0.0000 C   0  0  0  0  0  0  0  0  0  0  0  0
    7.1962   -1.7500    0.0000 C   0  0  0  0  0  0  0  0  0  0  0  0
   13.2583    1.7500    0.0000 C   0  0  0  0  0  0  0  0  0  0  0  0
    5.4641   -1.7500    0.0000 C   0  0  0  0  0  0  0  0  0  0  0  0
    4.5981   -1.2500    0.0000 C   0  0  0  0  0  0  0  0  0  0  0  0
  2 35  1  0  0  0  0
  3 25  1  0  0  0  0
  3 26  2  0  0  0  0
  3 27  2  0  0  0  0
  3 37  1  0  0  0  0
  4 28  1  0  0  0  0
  5 28  1  0  0  0  0
  6 29  1  0  0  0  0
  7 29  1  0  0  0  0
  8 30  1  0  0  0  0
  9 30  1  0  0  0  0
 10 31  1  0  0  0  0
 11 31  1  0  0  0  0
 12 32  1  0  0  0  0
 13 32  1  0  0  0  0
 14 33  1  0  0  0  0
 15 33  1  0  0  0  0
 16 34  1  0  0  0  0
 17 34  1  0  0  0  0
 18 35  1  0  0  0  0
 19 35  1  0  0  0  0
 20 36  1  0  0  0  0
 21 36  1  0  0  0  0
 22 37  1  0  0  0  0
 23 37  1  0  0  0  0
 24 34  1  0  0  0  0
 24 36  1  0  0  0  0
 28 29  1  0  0  0  0
 28 30  1  0  0  0  0
 29 31  1  0  0  0  0
 30 32  1  0  0  0  0
 31 33  1  0  0  0  0
 32 34  1  0  0  0  0
 33 35  1  0  0  0  0
 36 37  1  0  0  0  0
M  CHG  2   1   1  25  -1
M  END
> <PUBCHEM_COMPOUND_CID>
50851128

> <PUBCHEM_COMPOUND_CANONICALIZED>
1

> <PUBCHEM_CACTVS_COMPLEXITY>
943

> <PUBCHEM_CACTVS_HBOND_ACCEPTOR>
24

> <PUBCHEM_CACTVS_HBOND_DONOR>
0

> <PUBCHEM_CACTVS_ROTATABLE_BOND>
11

> <PUBCHEM_CACTVS_SUBSKEYS>
AAADcQBwOcBEQAAAAAAAAAAAAAAAAAAAAAAAAAAAAAAAAAAAAAAACwYAAAAACAIAwBAAAAAABAIAAAAAAHBAAAAAAAAAAAAAAgAAAAIBAAACAAAEAAAAAAGAwKAAAAAAAAAAAAAAAAAAAAAAAAAAAAAAAA==

> <PUBCHEM_IUPAC_OPENEYE_NAME>
potassium 2-(8-chloro-1,1,2,2,3,3,4,4,5,5,6,6,7,7,8,8-hexadecafluoro-octoxy)-1,1,2,2-tetrafluoro-ethanesulfonate

> <PUBCHEM_IUPAC_CAS_NAME>
potassium 2-(8-chloro-1,1,2,2,3,3,4,4,5,5,6,6,7,7,8,8-hexadecafluorooctoxy)-1,1,2,2-tetrafluoroethanesulfonate

> <PUBCHEM_IUPAC_NAME_MARKUP>
potassium 2-(8-chloro-1,1,2,2,3,3,4,4,5,5,6,6,7,7,8,8-hexadecafluorooctoxy)-1,1,2,2-tetrafluoroethanesulfonate

> <PUBCHEM_IUPAC_NAME>
potassium 2-(8-chloro-1,1,2,2,3,3,4,4,5,5,6,6,7,7,8,8-hexadecafluorooctoxy)-1,1,2,2-tetrafluoroethanesulfonate

> <PUBCHEM_IUPAC_SYSTEMATIC_NAME>
potassium 2-[8-chloranyl-1,1,2,2,3,3,4,4,5,5,6,6,7,7,8,8-hexadecakis(fluoranyl)octoxy]-1,1,2,2-tetrakis(fluoranyl)ethanesulfonate

> <PUBCHEM_IUPAC_TRADITIONAL_NAME>
potassium 2-(8-chloro-1,1,2,2,3,3,4,4,5,5,6,6,7,7,8,8-hexadecafluoro-octoxy)-1,1,2,2-tetrafluoro-ethanesulfonate

> <PUBCHEM_IUPAC_INCHI>
InChI=1S/C10HClF20O4S.K/c11-7(24,25)5(20,21)3(16,17)1(12,13)2(14,15)4(18,19)6(22,23)8(26,27)35-9(28,29)10(30,31)36(32,33)34;/h(H,32,33,34);/q;+1/p-1

> <PUBCHEM_IUPAC_INCHIKEY>
BDKYEEMJFNONPU-UHFFFAOYSA-M

> <PUBCHEM_EXACT_MASS>
669.8523521

> <PUBCHEM_MOLECULAR_FORMULA>
C10ClF20KO4S

> <PUBCHEM_MOLECULAR_WEIGHT>
670.69

> <PUBCHEM_SMILES>
C(C(C(C(C(F)(F)Cl)(F)F)(F)F)(F)F)(C(C(C(OC(C(F)(F)S(=O)(=O)[O-])(F)F)(F)F)(F)F)(F)F)(F)F.[K+]

> <PUBCHEM_CONNECTIVITY_SMILES>
C(C(C(C(C(F)(F)Cl)(F)F)(F)F)(F)F)(C(C(C(OC(C(F)(F)S(=O)(=O)[O-])(F)F)(F)F)(F)F)(F)F)(F)F.[K+]

> <PUBCHEM_CACTVS_TPSA>
74.8

> <PUBCHEM_MONOISOTOPIC_WEIGHT>
669.8523521

> <PUBCHEM_TOTAL_CHARGE>
0

> <PUBCHEM_HEAVY_ATOM_COUNT>
37

> <PUBCHEM_ATOM_DEF_STEREO_COUNT>
0

> <PUBCHEM_ATOM_UDEF_STEREO_COUNT>
0

> <PUBCHEM_BOND_DEF_STEREO_COUNT>
0

> <PUBCHEM_BOND_UDEF_STEREO_COUNT>
0

> <PUBCHEM_ISOTOPIC_ATOM_COUNT>
0

> <PUBCHEM_COMPONENT_COUNT>
2

> <PUBCHEM_CACTVS_TAUTO_COUNT>
-1

> <PUBCHEM_NONSTANDARDBOND>
1  25  7

> <PUBCHEM_COORDINATE_TYPE>
1
5
255

$$$$
