5125273
  -OEChem-05122610012D

 12 11  0     0  0  0  0  0  0999 V2000
    3.7690    1.1830    0.0000 F   0  0  0  0  0  0  0  0  0  0  0  0
    4.7690   -0.5490    0.0000 F   0  0  0  0  0  0  0  0  0  0  0  0
    6.8671   -0.1830    0.0000 F   0  0  0  0  0  0  0  0  0  0  0  0
    6.5010    1.1830    0.0000 F   0  0  0  0  0  0  0  0  0  0  0  0
    5.5010   -0.5490    0.0000 F   0  0  0  0  0  0  0  0  0  0  0  0
    5.1350    0.8170    0.0000 O   0  0  0  0  0  0  0  0  0  0  0  0
    2.5369    0.3170    0.0000 O   0  0  0  0  0  0  0  0  0  0  0  0
    3.4030   -1.1830    0.0000 O   0  0  0  0  0  0  0  0  0  0  0  0
    4.2690    0.3170    0.0000 C   0  0  0  0  0  0  0  0  0  0  0  0
    6.0010    0.3170    0.0000 C   0  0  0  0  0  0  0  0  0  0  0  0
    3.4030   -0.1830    0.0000 C   0  0  0  0  0  0  0  0  0  0  0  0
    2.0000    0.0070    0.0000 H   0  0  0  0  0  0  0  0  0  0  0  0
  1  9  1  0  0  0  0
  2  9  1  0  0  0  0
  3 10  1  0  0  0  0
  4 10  1  0  0  0  0
  5 10  1  0  0  0  0
  6  9  1  0  0  0  0
  6 10  1  0  0  0  0
  7 11  1  0  0  0  0
  7 12  1  0  0  0  0
  8 11  2  0  0  0  0
  9 11  1  0  0  0  0
M  END
> <PUBCHEM_COMPOUND_CID>
5125273

> <PUBCHEM_COMPOUND_CANONICALIZED>
1

> <PUBCHEM_CACTVS_COMPLEXITY>
161

> <PUBCHEM_CACTVS_HBOND_ACCEPTOR>
8

> <PUBCHEM_CACTVS_HBOND_DONOR>
1

> <PUBCHEM_CACTVS_ROTATABLE_BOND>
2

> <PUBCHEM_CACTVS_SUBSKEYS>
AAADcQBAMcAAAAAAAAAAAAAAAAAAAAAAAAAAAAAAAAAAAAAAAAAACwAACAAAAAAAgBAACAAABgAIAACQCAIAAAAAAAAAAABAAAABAAAAAAQAAAAAAAADAAAAAAAAAAAAAAAAAAAAAAAAAAAAAAAAAAAAAA==

> <PUBCHEM_IUPAC_OPENEYE_NAME>
2,2-difluoro-2-(trifluoromethoxy)acetic acid

> <PUBCHEM_IUPAC_CAS_NAME>
2,2-difluoro-2-(trifluoromethoxy)acetic acid

> <PUBCHEM_IUPAC_NAME_MARKUP>
2,2-difluoro-2-(trifluoromethoxy)acetic acid

> <PUBCHEM_IUPAC_NAME>
2,2-difluoro-2-(trifluoromethoxy)acetic acid

> <PUBCHEM_IUPAC_SYSTEMATIC_NAME>
2,2-bis(fluoranyl)-2-(trifluoromethyloxy)ethanoic acid

> <PUBCHEM_IUPAC_TRADITIONAL_NAME>
2,2-difluoro-2-(trifluoromethoxy)acetic acid

> <PUBCHEM_IUPAC_INCHI>
InChI=1S/C3HF5O3/c4-2(5,1(9)10)11-3(6,7)8/h(H,9,10)

> <PUBCHEM_IUPAC_INCHIKEY>
IHYMJUVQLSNPPP-UHFFFAOYSA-N

> <PUBCHEM_XLOGP3_AA>
1.6

> <PUBCHEM_EXACT_MASS>
179.98458470

> <PUBCHEM_MOLECULAR_FORMULA>
C3HF5O3

> <PUBCHEM_MOLECULAR_WEIGHT>
180.03

> <PUBCHEM_SMILES>
C(=O)(C(OC(F)(F)F)(F)F)O

> <PUBCHEM_CONNECTIVITY_SMILES>
C(=O)(C(OC(F)(F)F)(F)F)O

> <PUBCHEM_CACTVS_TPSA>
46.5

> <PUBCHEM_MONOISOTOPIC_WEIGHT>
179.98458470

> <PUBCHEM_TOTAL_CHARGE>
0

> <PUBCHEM_HEAVY_ATOM_COUNT>
11

> <PUBCHEM_ATOM_DEF_STEREO_COUNT>
0

> <PUBCHEM_ATOM_UDEF_STEREO_COUNT>
0

> <PUBCHEM_BOND_DEF_STEREO_COUNT>
0

> <PUBCHEM_BOND_UDEF_STEREO_COUNT>
0

> <PUBCHEM_ISOTOPIC_ATOM_COUNT>
0

> <PUBCHEM_COMPONENT_COUNT>
1

> <PUBCHEM_CACTVS_TAUTO_COUNT>
-1

> <PUBCHEM_COORDINATE_TYPE>
1
5
255

$$$$
