51342034
  -OEChem-05122608342D

 25 23  0     1  0  0  0  0  0999 V2000
    4.0000    1.0000    0.0000 F   0  0  0  0  0  0  0  0  0  0  0  0
    3.0000    0.0000    0.0000 F   0  0  0  0  0  0  0  0  0  0  0  0
    2.0000    0.0000    0.0000 F   0  0  0  0  0  0  0  0  0  0  0  0
    2.0000    2.0000    0.0000 F   0  0  0  0  0  0  0  0  0  0  0  0
    4.3660    1.6340    0.0000 F   0  0  0  0  0  0  0  0  0  0  0  0
    0.0000    1.0000    0.0000 F   0  0  0  0  0  0  0  0  0  0  0  0
    1.0000    0.0000    0.0000 F   0  0  0  0  0  0  0  0  0  0  0  0
    1.0000    2.0000    0.0000 F   0  0  0  0  0  0  0  0  0  0  0  0
    5.5981    3.5000    0.0000 F   0  0  0  0  0  0  0  0  0  0  0  0
    4.7321    4.0000    0.0000 F   0  0  0  0  0  0  0  0  0  0  0  0
    5.2321    2.1340    0.0000 F   0  0  0  0  0  0  0  0  0  0  0  0
    3.0000    2.0000    0.0000 O   0  0  0  0  0  0  0  0  0  0  0  0
    2.3660    3.3660    0.0000 O   0  5  0  0  0  0  0  0  0  0  0  0
    3.3660    4.3660    0.0000 O   0  0  0  0  0  0  0  0  0  0  0  0
    2.7990    6.9030    0.0000 N   0  3  0  0  0  0  0  0  0  0  0  0
    3.0000    1.0000    0.0000 C   0  0  0  0  0  0  0  0  0  0  0  0
    2.0000    1.0000    0.0000 C   0  0  0  0  0  0  0  0  0  0  0  0
    3.8660    2.5000    0.0000 C   0  0  3  0  0  0  0  0  0  0  0  0
    1.0000    1.0000    0.0000 C   0  0  0  0  0  0  0  0  0  0  0  0
    4.7321    3.0000    0.0000 C   0  0  0  0  0  0  0  0  0  0  0  0
    3.3660    3.3660    0.0000 C   0  0  0  0  0  0  0  0  0  0  0  0
    3.3360    7.2130    0.0000 H   0  0  0  0  0  0  0  0  0  0  0  0
    2.2621    6.5930    0.0000 H   0  0  0  0  0  0  0  0  0  0  0  0
    2.4890    7.4399    0.0000 H   0  0  0  0  0  0  0  0  0  0  0  0
    3.1090    6.3660    0.0000 H   0  0  0  0  0  0  0  0  0  0  0  0
  1 16  1  0  0  0  0
  2 16  1  0  0  0  0
  3 17  1  0  0  0  0
  4 17  1  0  0  0  0
  5 18  1  0  0  0  0
  6 19  1  0  0  0  0
  7 19  1  0  0  0  0
  8 19  1  0  0  0  0
  9 20  1  0  0  0  0
 10 20  1  0  0  0  0
 11 20  1  0  0  0  0
 12 16  1  0  0  0  0
 12 18  1  0  0  0  0
 13 21  1  0  0  0  0
 14 21  2  0  0  0  0
 15 22  1  0  0  0  0
 15 23  1  0  0  0  0
 15 24  1  0  0  0  0
 15 25  1  0  0  0  0
 16 17  1  0  0  0  0
 17 19  1  0  0  0  0
 18 20  1  0  0  0  0
 18 21  1  0  0  0  0
M  CHG  2  13  -1  15   1
M  END
> <PUBCHEM_COMPOUND_CID>
51342034

> <PUBCHEM_COMPOUND_CANONICALIZED>
1

> <PUBCHEM_CACTVS_COMPLEXITY>
377

> <PUBCHEM_CACTVS_HBOND_ACCEPTOR>
14

> <PUBCHEM_CACTVS_HBOND_DONOR>
1

> <PUBCHEM_CACTVS_ROTATABLE_BOND>
3

> <PUBCHEM_CACTVS_SUBSKEYS>
AAADcYBiMcAAAAAAAAAAAAAAAAAAAAAAAAAAAAAAAAAAAAAAAAAACwAQAAAACAQAgBAACAAABAAIAACQCAIAAAAAAAAAAAFAAAABAAAAAAQCAAAAAAACAAAAAAAAAAAAAAAAAAAAAAAAAAAAAAAAAAAAAA==

> <PUBCHEM_IUPAC_OPENEYE_NAME>
ammonium 2,3,3,3-tetrafluoro-2-(1,1,2,2,3,3,3-heptafluoropropoxy)propanoate

> <PUBCHEM_IUPAC_CAS_NAME>
ammonium 2,3,3,3-tetrafluoro-2-(1,1,2,2,3,3,3-heptafluoropropoxy)propanoate

> <PUBCHEM_IUPAC_NAME_MARKUP>
azanium 2,3,3,3-tetrafluoro-2-(1,1,2,2,3,3,3-heptafluoropropoxy)propanoate

> <PUBCHEM_IUPAC_NAME>
azanium 2,3,3,3-tetrafluoro-2-(1,1,2,2,3,3,3-heptafluoropropoxy)propanoate

> <PUBCHEM_IUPAC_SYSTEMATIC_NAME>
azanium 2,3,3,3-tetrakis(fluoranyl)-2-[1,1,2,2,3,3,3-heptakis(fluoranyl)propoxy]propanoate

> <PUBCHEM_IUPAC_TRADITIONAL_NAME>
ammonium 2,3,3,3-tetrafluoro-2-(1,1,2,2,3,3,3-heptafluoropropoxy)propionate

> <PUBCHEM_IUPAC_INCHI>
InChI=1S/C6HF11O3.H3N/c7-2(1(18)19,4(10,11)12)20-6(16,17)3(8,9)5(13,14)15;/h(H,18,19);1H3

> <PUBCHEM_IUPAC_INCHIKEY>
RJWVKMAIYPNUSL-UHFFFAOYSA-N

> <PUBCHEM_EXACT_MASS>
347.00155277

> <PUBCHEM_MOLECULAR_FORMULA>
C6H4F11NO3

> <PUBCHEM_MOLECULAR_WEIGHT>
347.08

> <PUBCHEM_SMILES>
C(=O)(C(C(F)(F)F)(OC(C(C(F)(F)F)(F)F)(F)F)F)[O-].[NH4+]

> <PUBCHEM_CONNECTIVITY_SMILES>
C(=O)(C(C(F)(F)F)(OC(C(C(F)(F)F)(F)F)(F)F)F)[O-].[NH4+]

> <PUBCHEM_CACTVS_TPSA>
50.4

> <PUBCHEM_MONOISOTOPIC_WEIGHT>
347.00155277

> <PUBCHEM_TOTAL_CHARGE>
0

> <PUBCHEM_HEAVY_ATOM_COUNT>
21

> <PUBCHEM_ATOM_DEF_STEREO_COUNT>
0

> <PUBCHEM_ATOM_UDEF_STEREO_COUNT>
1

> <PUBCHEM_BOND_DEF_STEREO_COUNT>
0

> <PUBCHEM_BOND_UDEF_STEREO_COUNT>
0

> <PUBCHEM_ISOTOPIC_ATOM_COUNT>
0

> <PUBCHEM_COMPONENT_COUNT>
2

> <PUBCHEM_CACTVS_TAUTO_COUNT>
-1

> <PUBCHEM_COORDINATE_TYPE>
1
5
255

> <PUBCHEM_BONDANNOTATIONS>
18  5  3

$$$$
