519171
  -OEChem-05122609422D

 22 21  0     0  0  0  0  0  0999 V2000
    6.3301   -0.3170    0.0000 Cl  0  0  0  0  0  0  0  0  0  0  0  0
    5.4641    1.1830    0.0000 O   0  0  0  0  0  0  0  0  0  0  0  0
    4.5981   -0.3170    0.0000 C   0  0  0  0  0  0  0  0  0  0  0  0
    3.7320   -0.8170    0.0000 C   0  0  0  0  0  0  0  0  0  0  0  0
    2.8660   -0.3170    0.0000 C   0  0  0  0  0  0  0  0  0  0  0  0
    4.0981    0.5490    0.0000 C   0  0  0  0  0  0  0  0  0  0  0  0
    5.0981   -1.1830    0.0000 C   0  0  0  0  0  0  0  0  0  0  0  0
    5.4641    0.1830    0.0000 C   0  0  0  0  0  0  0  0  0  0  0  0
    2.0000   -0.8170    0.0000 C   0  0  0  0  0  0  0  0  0  0  0  0
    3.3335   -1.2919    0.0000 H   0  0  0  0  0  0  0  0  0  0  0  0
    4.1306   -1.2919    0.0000 H   0  0  0  0  0  0  0  0  0  0  0  0
    3.2646    0.1580    0.0000 H   0  0  0  0  0  0  0  0  0  0  0  0
    2.4675    0.1580    0.0000 H   0  0  0  0  0  0  0  0  0  0  0  0
    4.6350    0.8590    0.0000 H   0  0  0  0  0  0  0  0  0  0  0  0
    3.7881    1.0860    0.0000 H   0  0  0  0  0  0  0  0  0  0  0  0
    3.5611    0.2390    0.0000 H   0  0  0  0  0  0  0  0  0  0  0  0
    4.5611   -1.4930    0.0000 H   0  0  0  0  0  0  0  0  0  0  0  0
    5.4081   -1.7200    0.0000 H   0  0  0  0  0  0  0  0  0  0  0  0
    5.6350   -0.8730    0.0000 H   0  0  0  0  0  0  0  0  0  0  0  0
    1.6900   -0.2801    0.0000 H   0  0  0  0  0  0  0  0  0  0  0  0
    1.4631   -1.1270    0.0000 H   0  0  0  0  0  0  0  0  0  0  0  0
    2.3100   -1.3539    0.0000 H   0  0  0  0  0  0  0  0  0  0  0  0
  1  8  1  0  0  0  0
  2  8  2  0  0  0  0
  3  4  1  0  0  0  0
  3  6  1  0  0  0  0
  3  7  1  0  0  0  0
  3  8  1  0  0  0  0
  4  5  1  0  0  0  0
  4 10  1  0  0  0  0
  4 11  1  0  0  0  0
  5  9  1  0  0  0  0
  5 12  1  0  0  0  0
  5 13  1  0  0  0  0
  6 14  1  0  0  0  0
  6 15  1  0  0  0  0
  6 16  1  0  0  0  0
  7 17  1  0  0  0  0
  7 18  1  0  0  0  0
  7 19  1  0  0  0  0
  9 20  1  0  0  0  0
  9 21  1  0  0  0  0
  9 22  1  0  0  0  0
M  END
> <PUBCHEM_COMPOUND_CID>
519171

> <PUBCHEM_COMPOUND_CANONICALIZED>
1

> <PUBCHEM_CACTVS_COMPLEXITY>
107

> <PUBCHEM_CACTVS_HBOND_ACCEPTOR>
1

> <PUBCHEM_CACTVS_HBOND_DONOR>
0

> <PUBCHEM_CACTVS_ROTATABLE_BOND>
3

> <PUBCHEM_CACTVS_SUBSKEYS>
AAADccBgIAAEAAAAAAAAAAAAAAAAAAAAAAAAAAAAAAAAAAAAAAAAGgIAAAAADgKAgAACAAAAAAAIAEAYAAAAAAAAAAAAAAEAAgAAABIBAAAAAAAAAAAAAAAIAAANAAAAAAAAAAAAAAAAAAAAAAAAAAAAAA==

> <PUBCHEM_IUPAC_OPENEYE_NAME>
2,2-dimethylpentanoyl chloride

> <PUBCHEM_IUPAC_CAS_NAME>
2,2-dimethylpentanoyl chloride

> <PUBCHEM_IUPAC_NAME_MARKUP>
2,2-dimethylpentanoyl chloride

> <PUBCHEM_IUPAC_NAME>
2,2-dimethylpentanoyl chloride

> <PUBCHEM_IUPAC_SYSTEMATIC_NAME>
2,2-dimethylpentanoyl chloride

> <PUBCHEM_IUPAC_TRADITIONAL_NAME>
2,2-dimethylvaleryl chloride

> <PUBCHEM_IUPAC_INCHI>
InChI=1S/C7H13ClO/c1-4-5-7(2,3)6(8)9/h4-5H2,1-3H3

> <PUBCHEM_IUPAC_INCHIKEY>
NUBKYCCXDNYHLQ-UHFFFAOYSA-N

> <PUBCHEM_XLOGP3_AA>
3.1

> <PUBCHEM_EXACT_MASS>
148.0654927

> <PUBCHEM_MOLECULAR_FORMULA>
C7H13ClO

> <PUBCHEM_MOLECULAR_WEIGHT>
148.63

> <PUBCHEM_SMILES>
CCCC(C)(C)C(=O)Cl

> <PUBCHEM_CONNECTIVITY_SMILES>
CCCC(C)(C)C(=O)Cl

> <PUBCHEM_CACTVS_TPSA>
17.1

> <PUBCHEM_MONOISOTOPIC_WEIGHT>
148.0654927

> <PUBCHEM_TOTAL_CHARGE>
0

> <PUBCHEM_HEAVY_ATOM_COUNT>
9

> <PUBCHEM_ATOM_DEF_STEREO_COUNT>
0

> <PUBCHEM_ATOM_UDEF_STEREO_COUNT>
0

> <PUBCHEM_BOND_DEF_STEREO_COUNT>
0

> <PUBCHEM_BOND_UDEF_STEREO_COUNT>
0

> <PUBCHEM_ISOTOPIC_ATOM_COUNT>
0

> <PUBCHEM_COMPONENT_COUNT>
1

> <PUBCHEM_CACTVS_TAUTO_COUNT>
-1

> <PUBCHEM_COORDINATE_TYPE>
1
5
255

$$$$
