519601
  -OEChem-05122608452D

100100  0     0  0  0  0  0  0999 V2000
    2.9659   -0.7500    0.0000 Si  0  0  0  0  0  0  0  0  0  0  0  0
    3.8320    0.7500    0.0000 Si  0  0  0  0  0  0  0  0  0  0  0  0
    3.8320   -2.2500    0.0000 Si  0  0  0  0  0  0  0  0  0  0  0  0
    4.6980    2.2500    0.0000 Si  0  0  0  0  0  0  0  0  0  0  0  0
    5.5640   -2.2500    0.0000 Si  0  0  0  0  0  0  0  0  0  0  0  0
    6.4300    2.2500    0.0000 Si  0  0  0  0  0  0  0  0  0  0  0  0
    7.2961   -2.2500    0.0000 Si  0  0  0  0  0  0  0  0  0  0  0  0
    8.1621    2.2500    0.0000 Si  0  0  0  0  0  0  0  0  0  0  0  0
    8.1621   -0.7500    0.0000 Si  0  0  0  0  0  0  0  0  0  0  0  0
    9.0281    0.7500    0.0000 Si  0  0  0  0  0  0  0  0  0  0  0  0
    3.8320   -0.2500    0.0000 O   0  0  0  0  0  0  0  0  0  0  0  0
    2.9659   -1.7500    0.0000 O   0  0  0  0  0  0  0  0  0  0  0  0
    4.6980    1.2500    0.0000 O   0  0  0  0  0  0  0  0  0  0  0  0
    4.6980   -1.7500    0.0000 O   0  0  0  0  0  0  0  0  0  0  0  0
    5.5640    2.7500    0.0000 O   0  0  0  0  0  0  0  0  0  0  0  0
    6.4300   -1.7500    0.0000 O   0  0  0  0  0  0  0  0  0  0  0  0
    7.2961    2.7500    0.0000 O   0  0  0  0  0  0  0  0  0  0  0  0
    8.1621   -1.7500    0.0000 O   0  0  0  0  0  0  0  0  0  0  0  0
    8.1621    1.2500    0.0000 O   0  0  0  0  0  0  0  0  0  0  0  0
    9.0281   -0.2500    0.0000 O   0  0  0  0  0  0  0  0  0  0  0  0
    2.0000   -1.0088    0.0000 C   0  0  0  0  0  0  0  0  0  0  0  0
    2.2588   -0.0429    0.0000 C   0  0  0  0  0  0  0  0  0  0  0  0
    3.1248    1.4571    0.0000 C   0  0  0  0  0  0  0  0  0  0  0  0
    2.8358    0.6628    0.0000 C   0  0  0  0  0  0  0  0  0  0  0  0
    3.1249   -2.9572    0.0000 C   0  0  0  0  0  0  0  0  0  0  0  0
    4.0908   -3.2159    0.0000 C   0  0  0  0  0  0  0  0  0  0  0  0
    4.4392    3.2159    0.0000 C   0  0  0  0  0  0  0  0  0  0  0  0
    3.7321    2.5088    0.0000 C   0  0  0  0  0  0  0  0  0  0  0  0
    4.9905   -3.0692    0.0000 C   0  0  0  0  0  0  0  0  0  0  0  0
    5.8228   -3.2159    0.0000 C   0  0  0  0  0  0  0  0  0  0  0  0
    6.6889    1.2841    0.0000 C   0  0  0  0  0  0  0  0  0  0  0  0
    5.7230    1.5428    0.0000 C   0  0  0  0  0  0  0  0  0  0  0  0
    8.0032   -2.9571    0.0000 C   0  0  0  0  0  0  0  0  0  0  0  0
    7.0372   -3.2159    0.0000 C   0  0  0  0  0  0  0  0  0  0  0  0
    8.4209    3.2159    0.0000 C   0  0  0  0  0  0  0  0  0  0  0  0
    9.1280    2.5088    0.0000 C   0  0  0  0  0  0  0  0  0  0  0  0
    7.1962   -1.0088    0.0000 C   0  0  0  0  0  0  0  0  0  0  0  0
    7.4550   -0.0429    0.0000 C   0  0  0  0  0  0  0  0  0  0  0  0
    9.9940    0.4912    0.0000 C   0  0  0  0  0  0  0  0  0  0  0  0
    9.7352    1.4571    0.0000 C   0  0  0  0  0  0  0  0  0  0  0  0
    1.8395   -0.4099    0.0000 H   0  0  0  0  0  0  0  0  0  0  0  0
    1.4011   -1.1693    0.0000 H   0  0  0  0  0  0  0  0  0  0  0  0
    2.1605   -1.6077    0.0000 H   0  0  0  0  0  0  0  0  0  0  0  0
    2.6972    0.3955    0.0000 H   0  0  0  0  0  0  0  0  0  0  0  0
    1.8204    0.3955    0.0000 H   0  0  0  0  0  0  0  0  0  0  0  0
    1.8204   -0.4813    0.0000 H   0  0  0  0  0  0  0  0  0  0  0  0
    3.5633    1.8955    0.0000 H   0  0  0  0  0  0  0  0  0  0  0  0
    2.6864    1.8955    0.0000 H   0  0  0  0  0  0  0  0  0  0  0  0
    2.6864    1.0187    0.0000 H   0  0  0  0  0  0  0  0  0  0  0  0
    2.7817    1.2805    0.0000 H   0  0  0  0  0  0  0  0  0  0  0  0
    2.2181    0.6088    0.0000 H   0  0  0  0  0  0  0  0  0  0  0  0
    2.8898    0.0452    0.0000 H   0  0  0  0  0  0  0  0  0  0  0  0
    2.6865   -2.5188    0.0000 H   0  0  0  0  0  0  0  0  0  0  0  0
    2.6865   -3.3956    0.0000 H   0  0  0  0  0  0  0  0  0  0  0  0
    3.5633   -3.3955    0.0000 H   0  0  0  0  0  0  0  0  0  0  0  0
    3.4919   -3.3764    0.0000 H   0  0  0  0  0  0  0  0  0  0  0  0
    4.2512   -3.8148    0.0000 H   0  0  0  0  0  0  0  0  0  0  0  0
    4.6896   -3.0555    0.0000 H   0  0  0  0  0  0  0  0  0  0  0  0
    5.0380    3.3764    0.0000 H   0  0  0  0  0  0  0  0  0  0  0  0
    4.2787    3.8148    0.0000 H   0  0  0  0  0  0  0  0  0  0  0  0
    3.8403    3.0555    0.0000 H   0  0  0  0  0  0  0  0  0  0  0  0
    3.8925    3.1077    0.0000 H   0  0  0  0  0  0  0  0  0  0  0  0
    3.1332    2.6693    0.0000 H   0  0  0  0  0  0  0  0  0  0  0  0
    3.5716    1.9100    0.0000 H   0  0  0  0  0  0  0  0  0  0  0  0
    4.4826   -2.7136    0.0000 H   0  0  0  0  0  0  0  0  0  0  0  0
    4.6349   -3.5771    0.0000 H   0  0  0  0  0  0  0  0  0  0  0  0
    5.4984   -3.4248    0.0000 H   0  0  0  0  0  0  0  0  0  0  0  0
    5.2240   -3.3764    0.0000 H   0  0  0  0  0  0  0  0  0  0  0  0
    5.9833   -3.8148    0.0000 H   0  0  0  0  0  0  0  0  0  0  0  0
    6.4217   -3.0555    0.0000 H   0  0  0  0  0  0  0  0  0  0  0  0
    6.0900    1.1236    0.0000 H   0  0  0  0  0  0  0  0  0  0  0  0
    6.8493    0.6852    0.0000 H   0  0  0  0  0  0  0  0  0  0  0  0
    7.2877    1.4445    0.0000 H   0  0  0  0  0  0  0  0  0  0  0  0
    5.2845    1.9812    0.0000 H   0  0  0  0  0  0  0  0  0  0  0  0
    5.2846    1.1044    0.0000 H   0  0  0  0  0  0  0  0  0  0  0  0
    6.1614    1.1045    0.0000 H   0  0  0  0  0  0  0  0  0  0  0  0
    7.5648   -3.3955    0.0000 H   0  0  0  0  0  0  0  0  0  0  0  0
    8.4416   -3.3955    0.0000 H   0  0  0  0  0  0  0  0  0  0  0  0
    8.4416   -2.5187    0.0000 H   0  0  0  0  0  0  0  0  0  0  0  0
    6.4384   -3.0555    0.0000 H   0  0  0  0  0  0  0  0  0  0  0  0
    6.8768   -3.8148    0.0000 H   0  0  0  0  0  0  0  0  0  0  0  0
    7.6361   -3.3764    0.0000 H   0  0  0  0  0  0  0  0  0  0  0  0
    9.0198    3.0555    0.0000 H   0  0  0  0  0  0  0  0  0  0  0  0
    8.5814    3.8148    0.0000 H   0  0  0  0  0  0  0  0  0  0  0  0
    7.8220    3.3764    0.0000 H   0  0  0  0  0  0  0  0  0  0  0  0
    9.2885    1.9100    0.0000 H   0  0  0  0  0  0  0  0  0  0  0  0
    9.7269    2.6693    0.0000 H   0  0  0  0  0  0  0  0  0  0  0  0
    8.9675    3.1077    0.0000 H   0  0  0  0  0  0  0  0  0  0  0  0
    7.0357   -0.4099    0.0000 H   0  0  0  0  0  0  0  0  0  0  0  0
    6.5973   -1.1693    0.0000 H   0  0  0  0  0  0  0  0  0  0  0  0
    7.3566   -1.6077    0.0000 H   0  0  0  0  0  0  0  0  0  0  0  0
    7.8934    0.3955    0.0000 H   0  0  0  0  0  0  0  0  0  0  0  0
    7.0166    0.3955    0.0000 H   0  0  0  0  0  0  0  0  0  0  0  0
    7.0166   -0.4813    0.0000 H   0  0  0  0  0  0  0  0  0  0  0  0
    9.8336   -0.1077    0.0000 H   0  0  0  0  0  0  0  0  0  0  0  0
   10.5929    0.3307    0.0000 H   0  0  0  0  0  0  0  0  0  0  0  0
   10.1545    1.0901    0.0000 H   0  0  0  0  0  0  0  0  0  0  0  0
   10.1736    1.0187    0.0000 H   0  0  0  0  0  0  0  0  0  0  0  0
   10.1736    1.8955    0.0000 H   0  0  0  0  0  0  0  0  0  0  0  0
    9.2968    1.8955    0.0000 H   0  0  0  0  0  0  0  0  0  0  0  0
  1 11  1  0  0  0  0
  1 12  1  0  0  0  0
  1 21  1  0  0  0  0
  1 22  1  0  0  0  0
  2 11  1  0  0  0  0
  2 13  1  0  0  0  0
  2 23  1  0  0  0  0
  2 24  1  0  0  0  0
  3 12  1  0  0  0  0
  3 14  1  0  0  0  0
  3 25  1  0  0  0  0
  3 26  1  0  0  0  0
  4 13  1  0  0  0  0
  4 15  1  0  0  0  0
  4 27  1  0  0  0  0
  4 28  1  0  0  0  0
  5 14  1  0  0  0  0
  5 16  1  0  0  0  0
  5 29  1  0  0  0  0
  5 30  1  0  0  0  0
  6 15  1  0  0  0  0
  6 17  1  0  0  0  0
  6 31  1  0  0  0  0
  6 32  1  0  0  0  0
  7 16  1  0  0  0  0
  7 18  1  0  0  0  0
  7 33  1  0  0  0  0
  7 34  1  0  0  0  0
  8 17  1  0  0  0  0
  8 19  1  0  0  0  0
  8 35  1  0  0  0  0
  8 36  1  0  0  0  0
  9 18  1  0  0  0  0
  9 20  1  0  0  0  0
  9 37  1  0  0  0  0
  9 38  1  0  0  0  0
 10 19  1  0  0  0  0
 10 20  1  0  0  0  0
 10 39  1  0  0  0  0
 10 40  1  0  0  0  0
 21 41  1  0  0  0  0
 21 42  1  0  0  0  0
 21 43  1  0  0  0  0
 22 44  1  0  0  0  0
 22 45  1  0  0  0  0
 22 46  1  0  0  0  0
 23 47  1  0  0  0  0
 23 48  1  0  0  0  0
 23 49  1  0  0  0  0
 24 50  1  0  0  0  0
 24 51  1  0  0  0  0
 24 52  1  0  0  0  0
 25 53  1  0  0  0  0
 25 54  1  0  0  0  0
 25 55  1  0  0  0  0
 26 56  1  0  0  0  0
 26 57  1  0  0  0  0
 26 58  1  0  0  0  0
 27 59  1  0  0  0  0
 27 60  1  0  0  0  0
 27 61  1  0  0  0  0
 28 62  1  0  0  0  0
 28 63  1  0  0  0  0
 28 64  1  0  0  0  0
 29 65  1  0  0  0  0
 29 66  1  0  0  0  0
 29 67  1  0  0  0  0
 30 68  1  0  0  0  0
 30 69  1  0  0  0  0
 30 70  1  0  0  0  0
 31 71  1  0  0  0  0
 31 72  1  0  0  0  0
 31 73  1  0  0  0  0
 32 74  1  0  0  0  0
 32 75  1  0  0  0  0
 32 76  1  0  0  0  0
 33 77  1  0  0  0  0
 33 78  1  0  0  0  0
 33 79  1  0  0  0  0
 34 80  1  0  0  0  0
 34 81  1  0  0  0  0
 34 82  1  0  0  0  0
 35 83  1  0  0  0  0
 35 84  1  0  0  0  0
 35 85  1  0  0  0  0
 36 86  1  0  0  0  0
 36 87  1  0  0  0  0
 36 88  1  0  0  0  0
 37 89  1  0  0  0  0
 37 90  1  0  0  0  0
 37 91  1  0  0  0  0
 38 92  1  0  0  0  0
 38 93  1  0  0  0  0
 38 94  1  0  0  0  0
 39 95  1  0  0  0  0
 39 96  1  0  0  0  0
 39 97  1  0  0  0  0
 40 98  1  0  0  0  0
 40 99  1  0  0  0  0
 40100  1  0  0  0  0
M  END
> <PUBCHEM_COMPOUND_CID>
519601

> <PUBCHEM_COMPOUND_CANONICALIZED>
1

> <PUBCHEM_CACTVS_COMPLEXITY>
586

> <PUBCHEM_CACTVS_HBOND_ACCEPTOR>
10

> <PUBCHEM_CACTVS_HBOND_DONOR>
0

> <PUBCHEM_CACTVS_ROTATABLE_BOND>
0

> <PUBCHEM_CACTVS_SUBSKEYS>
AAADcfB4PAwAAAAAAAAAAAAAAAAAAAAAAAAAAAAAAAAAAAAAAAAAEBAAAEAAAAAAAABCAAAAAAEAAAAAAAAAAAAAAAAAAAAAAAAAAAAAAAAAAAAAAAAAAAAAAAAAAAAAAAAAAAAAAAAAAAAAAAAAAAAAAA==

> <PUBCHEM_IUPAC_OPENEYE_NAME>
2,2,4,4,6,6,8,8,10,10,12,12,14,14,16,16,18,18,20,20-icosamethyl-1,3,5,7,9,11,13,15,17,19-decaoxa-2,4,6,8,10,12,14,16,18,20-decasilacycloicosane

> <PUBCHEM_IUPAC_CAS_NAME>
2,2,4,4,6,6,8,8,10,10,12,12,14,14,16,16,18,18,20,20-eicosamethyl-1,3,5,7,9,11,13,15,17,19-decaoxa-2,4,6,8,10,12,14,16,18,20-decasilacycloeicosane

> <PUBCHEM_IUPAC_NAME_MARKUP>
2,2,4,4,6,6,8,8,10,10,12,12,14,14,16,16,18,18,20,20-icosamethyl-1,3,5,7,9,11,13,15,17,19-decaoxa-2,4,6,8,10,12,14,16,18,20-decasilacycloicosane

> <PUBCHEM_IUPAC_NAME>
2,2,4,4,6,6,8,8,10,10,12,12,14,14,16,16,18,18,20,20-icosamethyl-1,3,5,7,9,11,13,15,17,19-decaoxa-2,4,6,8,10,12,14,16,18,20-decasilacycloicosane

> <PUBCHEM_IUPAC_SYSTEMATIC_NAME>
2,2,4,4,6,6,8,8,10,10,12,12,14,14,16,16,18,18,20,20-icosamethyl-1,3,5,7,9,11,13,15,17,19-decaoxa-2,4,6,8,10,12,14,16,18,20-decasilacycloicosane

> <PUBCHEM_IUPAC_TRADITIONAL_NAME>
2,2,4,4,6,6,8,8,10,10,12,12,14,14,16,16,18,18,20,20-eicosamethyl-1,3,5,7,9,11,13,15,17,19-decaoxa-2,4,6,8,10,12,14,16,18,20-decasilacycloeicosane

> <PUBCHEM_IUPAC_INCHI>
InChI=1S/C20H60O10Si10/c1-31(2)21-32(3,4)23-34(7,8)25-36(11,12)27-38(15,16)29-40(19,20)30-39(17,18)28-37(13,14)26-35(9,10)24-33(5,6)22-31/h1-20H3

> <PUBCHEM_IUPAC_INCHIKEY>
CDNNKGWZSNSADW-UHFFFAOYSA-N

> <PUBCHEM_EXACT_MASS>
740.18791345

> <PUBCHEM_MOLECULAR_FORMULA>
C20H60O10Si10

> <PUBCHEM_MOLECULAR_WEIGHT>
741.5

> <PUBCHEM_SMILES>
C[Si]1(O[Si](O[Si](O[Si](O[Si](O[Si](O[Si](O[Si](O[Si](O[Si](O1)(C)C)(C)C)(C)C)(C)C)(C)C)(C)C)(C)C)(C)C)(C)C)C

> <PUBCHEM_CONNECTIVITY_SMILES>
C[Si]1(O[Si](O[Si](O[Si](O[Si](O[Si](O[Si](O[Si](O[Si](O[Si](O1)(C)C)(C)C)(C)C)(C)C)(C)C)(C)C)(C)C)(C)C)(C)C)C

> <PUBCHEM_CACTVS_TPSA>
92.3

> <PUBCHEM_MONOISOTOPIC_WEIGHT>
740.18791345

> <PUBCHEM_TOTAL_CHARGE>
0

> <PUBCHEM_HEAVY_ATOM_COUNT>
40

> <PUBCHEM_ATOM_DEF_STEREO_COUNT>
0

> <PUBCHEM_ATOM_UDEF_STEREO_COUNT>
0

> <PUBCHEM_BOND_DEF_STEREO_COUNT>
0

> <PUBCHEM_BOND_UDEF_STEREO_COUNT>
0

> <PUBCHEM_ISOTOPIC_ATOM_COUNT>
0

> <PUBCHEM_COMPONENT_COUNT>
1

> <PUBCHEM_CACTVS_TAUTO_COUNT>
-1

> <PUBCHEM_COORDINATE_TYPE>
1
5
255

$$$$
