520871
  -OEChem-08032615172D

 40 40  0     0  0  0  0  0  0999 V2000
    2.8660   -1.2500    0.0000 Si  0  0  0  0  0  0  0  0  0  0  0  0
    6.3301    1.7500    0.0000 Si  0  0  0  0  0  0  0  0  0  0  0  0
    3.7320   -0.7500    0.0000 O   0  0  0  0  0  0  0  0  0  0  0  0
    6.3301    0.7500    0.0000 O   0  0  0  0  0  0  0  0  0  0  0  0
    4.5981    0.7500    0.0000 O   0  0  0  0  0  0  0  0  0  0  0  0
    2.0000   -1.7500    0.0000 C   0  0  0  0  0  0  0  0  0  0  0  0
    2.3660   -0.3840    0.0000 C   0  0  0  0  0  0  0  0  0  0  0  0
    3.3660   -2.1160    0.0000 C   0  0  0  0  0  0  0  0  0  0  0  0
    6.3301    2.7500    0.0000 C   0  0  0  0  0  0  0  0  0  0  0  0
    7.3301    1.7500    0.0000 C   0  0  0  0  0  0  0  0  0  0  0  0
    5.3301    1.7500    0.0000 C   0  0  0  0  0  0  0  0  0  0  0  0
    4.5981   -1.2500    0.0000 C   0  0  0  0  0  0  0  0  0  0  0  0
    5.4641   -0.7500    0.0000 C   0  0  0  0  0  0  0  0  0  0  0  0
    5.4641    0.2500    0.0000 C   0  0  0  0  0  0  0  0  0  0  0  0
    4.5981   -2.2500    0.0000 C   0  0  0  0  0  0  0  0  0  0  0  0
    6.3301   -1.2500    0.0000 C   0  0  0  0  0  0  0  0  0  0  0  0
    5.4641   -2.7500    0.0000 C   0  0  0  0  0  0  0  0  0  0  0  0
    6.3301   -2.2500    0.0000 C   0  0  0  0  0  0  0  0  0  0  0  0
    1.6900   -1.2131    0.0000 H   0  0  0  0  0  0  0  0  0  0  0  0
    1.4631   -2.0600    0.0000 H   0  0  0  0  0  0  0  0  0  0  0  0
    2.3100   -2.2869    0.0000 H   0  0  0  0  0  0  0  0  0  0  0  0
    2.9030   -0.0740    0.0000 H   0  0  0  0  0  0  0  0  0  0  0  0
    2.0560    0.1530    0.0000 H   0  0  0  0  0  0  0  0  0  0  0  0
    1.8291   -0.6940    0.0000 H   0  0  0  0  0  0  0  0  0  0  0  0
    2.8291   -2.4260    0.0000 H   0  0  0  0  0  0  0  0  0  0  0  0
    3.6760   -2.6530    0.0000 H   0  0  0  0  0  0  0  0  0  0  0  0
    3.9030   -1.8060    0.0000 H   0  0  0  0  0  0  0  0  0  0  0  0
    6.9501    2.7500    0.0000 H   0  0  0  0  0  0  0  0  0  0  0  0
    6.3301    3.3700    0.0000 H   0  0  0  0  0  0  0  0  0  0  0  0
    5.7101    2.7500    0.0000 H   0  0  0  0  0  0  0  0  0  0  0  0
    7.3301    1.1300    0.0000 H   0  0  0  0  0  0  0  0  0  0  0  0
    7.9501    1.7500    0.0000 H   0  0  0  0  0  0  0  0  0  0  0  0
    7.3301    2.3700    0.0000 H   0  0  0  0  0  0  0  0  0  0  0  0
    5.3301    2.3700    0.0000 H   0  0  0  0  0  0  0  0  0  0  0  0
    4.7101    1.7500    0.0000 H   0  0  0  0  0  0  0  0  0  0  0  0
    5.3301    1.1300    0.0000 H   0  0  0  0  0  0  0  0  0  0  0  0
    4.0611   -2.5600    0.0000 H   0  0  0  0  0  0  0  0  0  0  0  0
    6.8671   -0.9400    0.0000 H   0  0  0  0  0  0  0  0  0  0  0  0
    5.4641   -3.3700    0.0000 H   0  0  0  0  0  0  0  0  0  0  0  0
    6.8671   -2.5600    0.0000 H   0  0  0  0  0  0  0  0  0  0  0  0
  1  3  1  0  0  0  0
  1  6  1  0  0  0  0
  1  7  1  0  0  0  0
  1  8  1  0  0  0  0
  2  4  1  0  0  0  0
  2  9  1  0  0  0  0
  2 10  1  0  0  0  0
  2 11  1  0  0  0  0
  3 12  1  0  0  0  0
  4 14  1  0  0  0  0
  5 14  2  0  0  0  0
  6 19  1  0  0  0  0
  6 20  1  0  0  0  0
  6 21  1  0  0  0  0
  7 22  1  0  0  0  0
  7 23  1  0  0  0  0
  7 24  1  0  0  0  0
  8 25  1  0  0  0  0
  8 26  1  0  0  0  0
  8 27  1  0  0  0  0
  9 28  1  0  0  0  0
  9 29  1  0  0  0  0
  9 30  1  0  0  0  0
 10 31  1  0  0  0  0
 10 32  1  0  0  0  0
 10 33  1  0  0  0  0
 11 34  1  0  0  0  0
 11 35  1  0  0  0  0
 11 36  1  0  0  0  0
 12 13  1  0  0  0  0
 12 15  2  0  0  0  0
 13 14  1  0  0  0  0
 13 16  2  0  0  0  0
 15 17  1  0  0  0  0
 15 37  1  0  0  0  0
 16 18  1  0  0  0  0
 16 38  1  0  0  0  0
 17 18  2  0  0  0  0
 17 39  1  0  0  0  0
 18 40  1  0  0  0  0
M  END
> <PUBCHEM_COMPOUND_CID>
520871

> <PUBCHEM_COMPOUND_CANONICALIZED>
1

> <PUBCHEM_CACTVS_COMPLEXITY>
292

> <PUBCHEM_CACTVS_HBOND_ACCEPTOR>
3

> <PUBCHEM_CACTVS_HBOND_DONOR>
0

> <PUBCHEM_CACTVS_ROTATABLE_BOND>
5

> <PUBCHEM_CACTVS_SUBSKEYS>
AAADceBwMAwAAAAAAAAAAAAAAAAAAAAAAAAwAAAAAAAAAAABAAAAGhAAAEAADASAmAByDoAAAAGIAiDSCAACAAAkIAAIiAEGCMgIJzaAFRKAMUAl4BEIiYeIyCCOAAAAAAAIAAAAAAAAABAAAAAAAAAAAA==

> <PUBCHEM_IUPAC_OPENEYE_NAME>
trimethylsilyl 2-trimethylsilyloxybenzoate

> <PUBCHEM_IUPAC_CAS_NAME>
2-trimethylsilyloxybenzoic acid trimethylsilyl ester

> <PUBCHEM_IUPAC_NAME_MARKUP>
trimethylsilyl 2-trimethylsilyloxybenzoate

> <PUBCHEM_IUPAC_NAME>
trimethylsilyl 2-trimethylsilyloxybenzoate

> <PUBCHEM_IUPAC_SYSTEMATIC_NAME>
trimethylsilyl 2-trimethylsilyloxybenzoate

> <PUBCHEM_IUPAC_TRADITIONAL_NAME>
2-trimethylsilyloxybenzoic acid trimethylsilyl ester

> <PUBCHEM_IUPAC_INCHI>
InChI=1S/C13H22O3Si2/c1-17(2,3)15-12-10-8-7-9-11(12)13(14)16-18(4,5)6/h7-10H,1-6H3

> <PUBCHEM_IUPAC_INCHIKEY>
BNAGIDDOEKUJRZ-UHFFFAOYSA-N

> <PUBCHEM_EXACT_MASS>
282.11074763

> <PUBCHEM_MOLECULAR_FORMULA>
C13H22O3Si2

> <PUBCHEM_MOLECULAR_WEIGHT>
282.48

> <PUBCHEM_SMILES>
C[Si](C)(C)OC1=CC=CC=C1C(=O)O[Si](C)(C)C

> <PUBCHEM_CONNECTIVITY_SMILES>
C[Si](C)(C)OC1=CC=CC=C1C(=O)O[Si](C)(C)C

> <PUBCHEM_CACTVS_TPSA>
35.5

> <PUBCHEM_MONOISOTOPIC_WEIGHT>
282.11074763

> <PUBCHEM_TOTAL_CHARGE>
0

> <PUBCHEM_HEAVY_ATOM_COUNT>
18

> <PUBCHEM_ATOM_DEF_STEREO_COUNT>
0

> <PUBCHEM_ATOM_UDEF_STEREO_COUNT>
0

> <PUBCHEM_BOND_DEF_STEREO_COUNT>
0

> <PUBCHEM_BOND_UDEF_STEREO_COUNT>
0

> <PUBCHEM_ISOTOPIC_ATOM_COUNT>
0

> <PUBCHEM_COMPONENT_COUNT>
1

> <PUBCHEM_CACTVS_TAUTO_COUNT>
-1

> <PUBCHEM_COORDINATE_TYPE>
1
5
255

> <PUBCHEM_BONDANNOTATIONS>
12  13  8
12  15  8
13  16  8
15  17  8
16  18  8
17  18  8

$$$$
