520917
  -OEChem-05122609212D

 25 25  0     0  0  0  0  0  0999 V2000
    3.4511    0.8649    0.0000 C   0  0  0  0  0  0  0  0  0  0  0  0
    2.9511   -0.6739    0.0000 C   0  0  0  0  0  0  0  0  0  0  0  0
    2.6420    0.2771    0.0000 C   0  0  0  0  0  0  0  0  0  0  0  0
    4.2601    0.2771    0.0000 C   0  0  0  0  0  0  0  0  0  0  0  0
    3.9511   -0.6739    0.0000 C   0  0  0  0  0  0  0  0  0  0  0  0
    4.0388    1.6739    0.0000 C   0  0  0  0  0  0  0  0  0  0  0  0
    2.8633    1.6739    0.0000 C   0  0  0  0  0  0  0  0  0  0  0  0
    2.9511   -1.6739    0.0000 C   0  0  0  0  0  0  0  0  0  0  0  0
    2.0000   -0.9829    0.0000 C   0  0  0  0  0  0  0  0  0  0  0  0
    2.3320    0.8141    0.0000 H   0  0  0  0  0  0  0  0  0  0  0  0
    2.0756    0.0250    0.0000 H   0  0  0  0  0  0  0  0  0  0  0  0
    4.8497    0.4687    0.0000 H   0  0  0  0  0  0  0  0  0  0  0  0
    4.3155   -1.1755    0.0000 H   0  0  0  0  0  0  0  0  0  0  0  0
    4.5404    1.3095    0.0000 H   0  0  0  0  0  0  0  0  0  0  0  0
    4.4033    2.1755    0.0000 H   0  0  0  0  0  0  0  0  0  0  0  0
    3.5373    2.0384    0.0000 H   0  0  0  0  0  0  0  0  0  0  0  0
    3.3649    2.0384    0.0000 H   0  0  0  0  0  0  0  0  0  0  0  0
    2.4988    2.1755    0.0000 H   0  0  0  0  0  0  0  0  0  0  0  0
    2.3617    1.3095    0.0000 H   0  0  0  0  0  0  0  0  0  0  0  0
    2.3311   -1.6739    0.0000 H   0  0  0  0  0  0  0  0  0  0  0  0
    2.9511   -2.2939    0.0000 H   0  0  0  0  0  0  0  0  0  0  0  0
    3.5711   -1.6739    0.0000 H   0  0  0  0  0  0  0  0  0  0  0  0
    1.8084   -0.3933    0.0000 H   0  0  0  0  0  0  0  0  0  0  0  0
    1.4103   -1.1745    0.0000 H   0  0  0  0  0  0  0  0  0  0  0  0
    2.1916   -1.5726    0.0000 H   0  0  0  0  0  0  0  0  0  0  0  0
  1  3  1  0  0  0  0
  1  4  1  0  0  0  0
  1  6  1  0  0  0  0
  1  7  1  0  0  0  0
  2  3  1  0  0  0  0
  2  5  1  0  0  0  0
  2  8  1  0  0  0  0
  2  9  1  0  0  0  0
  3 10  1  0  0  0  0
  3 11  1  0  0  0  0
  4  5  2  0  0  0  0
  4 12  1  0  0  0  0
  5 13  1  0  0  0  0
  6 14  1  0  0  0  0
  6 15  1  0  0  0  0
  6 16  1  0  0  0  0
  7 17  1  0  0  0  0
  7 18  1  0  0  0  0
  7 19  1  0  0  0  0
  8 20  1  0  0  0  0
  8 21  1  0  0  0  0
  8 22  1  0  0  0  0
  9 23  1  0  0  0  0
  9 24  1  0  0  0  0
  9 25  1  0  0  0  0
M  END
> <PUBCHEM_COMPOUND_CID>
520917

> <PUBCHEM_COMPOUND_CANONICALIZED>
1

> <PUBCHEM_CACTVS_COMPLEXITY>
122

> <PUBCHEM_CACTVS_HBOND_ACCEPTOR>
0

> <PUBCHEM_CACTVS_HBOND_DONOR>
0

> <PUBCHEM_CACTVS_ROTATABLE_BOND>
0

> <PUBCHEM_CACTVS_SUBSKEYS>
AAADceBwAAAAAAAAAAAAAAAAAAAAAQAAAAAAAAAAAAAAAAAAAAAAGAAAAAAADgCAAAACAAAAAACAACBCAAAAAAAgAAAICAAAAAgAAAIAAAAAAAAAgAAIAAIAAAANAAAAAAAAAAAAAAAAAAAAAAAAAAAAAA==

> <PUBCHEM_IUPAC_OPENEYE_NAME>
3,3,5,5-tetramethylcyclopentene

> <PUBCHEM_IUPAC_CAS_NAME>
3,3,5,5-tetramethylcyclopentene

> <PUBCHEM_IUPAC_NAME_MARKUP>
3,3,5,5-tetramethylcyclopentene

> <PUBCHEM_IUPAC_NAME>
3,3,5,5-tetramethylcyclopentene

> <PUBCHEM_IUPAC_SYSTEMATIC_NAME>
3,3,5,5-tetramethylcyclopentene

> <PUBCHEM_IUPAC_TRADITIONAL_NAME>
3,3,5,5-tetramethylcyclopentene

> <PUBCHEM_IUPAC_INCHI>
InChI=1S/C9H16/c1-8(2)5-6-9(3,4)7-8/h5-6H,7H2,1-4H3

> <PUBCHEM_IUPAC_INCHIKEY>
FCJMCOVEXBZEMH-UHFFFAOYSA-N

> <PUBCHEM_XLOGP3_AA>
3.7

> <PUBCHEM_EXACT_MASS>
124.125200510

> <PUBCHEM_MOLECULAR_FORMULA>
C9H16

> <PUBCHEM_MOLECULAR_WEIGHT>
124.22

> <PUBCHEM_SMILES>
CC1(CC(C=C1)(C)C)C

> <PUBCHEM_CONNECTIVITY_SMILES>
CC1(CC(C=C1)(C)C)C

> <PUBCHEM_CACTVS_TPSA>
0

> <PUBCHEM_MONOISOTOPIC_WEIGHT>
124.125200510

> <PUBCHEM_TOTAL_CHARGE>
0

> <PUBCHEM_HEAVY_ATOM_COUNT>
9

> <PUBCHEM_ATOM_DEF_STEREO_COUNT>
0

> <PUBCHEM_ATOM_UDEF_STEREO_COUNT>
0

> <PUBCHEM_BOND_DEF_STEREO_COUNT>
0

> <PUBCHEM_BOND_UDEF_STEREO_COUNT>
0

> <PUBCHEM_ISOTOPIC_ATOM_COUNT>
0

> <PUBCHEM_COMPONENT_COUNT>
1

> <PUBCHEM_CACTVS_TAUTO_COUNT>
-1

> <PUBCHEM_COORDINATE_TYPE>
1
5
255

$$$$
