5210422
  -OEChem-05122610032D

 28 30  0     0  0  0  0  0  0999 V2000
    2.0000   -0.5911    0.0000 F   0  0  0  0  0  0  0  0  0  0  0  0
    2.0000    1.4572    0.0000 F   0  0  0  0  0  0  0  0  0  0  0  0
    5.5301    2.4330    0.0000 O   0  0  0  0  0  0  0  0  0  0  0  0
    8.1282    0.9330    0.0000 O   0  0  0  0  0  0  0  0  0  0  0  0
    7.2622    2.4330    0.0000 O   0  0  0  0  0  0  0  0  0  0  0  0
    5.5301   -0.5670    0.0000 N   0  0  0  0  0  0  0  0  0  0  0  0
    5.5301   -1.5670    0.0000 C   0  0  0  0  0  0  0  0  0  0  0  0
    5.0301   -2.4330    0.0000 C   0  0  0  0  0  0  0  0  0  0  0  0
    6.0301   -2.4330    0.0000 C   0  0  0  0  0  0  0  0  0  0  0  0
    4.6641   -0.0670    0.0000 C   0  0  0  0  0  0  0  0  0  0  0  0
    6.3962   -0.0670    0.0000 C   0  0  0  0  0  0  0  0  0  0  0  0
    4.6641    0.9330    0.0000 C   0  0  0  0  0  0  0  0  0  0  0  0
    6.3962    0.9330    0.0000 C   0  0  0  0  0  0  0  0  0  0  0  0
    3.7702   -0.6016    0.0000 C   0  0  0  0  0  0  0  0  0  0  0  0
    5.5301    1.4330    0.0000 C   0  0  0  0  0  0  0  0  0  0  0  0
    3.7702    1.4677    0.0000 C   0  0  0  0  0  0  0  0  0  0  0  0
    2.8641   -0.0878    0.0000 C   0  0  0  0  0  0  0  0  0  0  0  0
    2.8641    0.9538    0.0000 C   0  0  0  0  0  0  0  0  0  0  0  0
    7.2622    1.4330    0.0000 C   0  0  0  0  0  0  0  0  0  0  0  0
    6.1290   -1.4065    0.0000 H   0  0  0  0  0  0  0  0  0  0  0  0
    4.4475   -2.2210    0.0000 H   0  0  0  0  0  0  0  0  0  0  0  0
    4.9225   -3.0436    0.0000 H   0  0  0  0  0  0  0  0  0  0  0  0
    6.1378   -3.0436    0.0000 H   0  0  0  0  0  0  0  0  0  0  0  0
    6.6127   -2.2210    0.0000 H   0  0  0  0  0  0  0  0  0  0  0  0
    6.9331   -0.3770    0.0000 H   0  0  0  0  0  0  0  0  0  0  0  0
    3.7773   -1.2216    0.0000 H   0  0  0  0  0  0  0  0  0  0  0  0
    3.7773    2.0876    0.0000 H   0  0  0  0  0  0  0  0  0  0  0  0
    8.6651    1.2430    0.0000 H   0  0  0  0  0  0  0  0  0  0  0  0
  1 17  1  0  0  0  0
  2 18  1  0  0  0  0
  3 15  2  0  0  0  0
  4 19  1  0  0  0  0
  4 28  1  0  0  0  0
  5 19  2  0  0  0  0
  6  7  1  0  0  0  0
  6 10  1  0  0  0  0
  6 11  1  0  0  0  0
  7  8  1  0  0  0  0
  7  9  1  0  0  0  0
  7 20  1  0  0  0  0
  8  9  1  0  0  0  0
  8 21  1  0  0  0  0
  8 22  1  0  0  0  0
  9 23  1  0  0  0  0
  9 24  1  0  0  0  0
 10 12  1  0  0  0  0
 10 14  2  0  0  0  0
 11 13  2  0  0  0  0
 11 25  1  0  0  0  0
 12 15  1  0  0  0  0
 12 16  2  0  0  0  0
 13 15  1  0  0  0  0
 13 19  1  0  0  0  0
 14 17  1  0  0  0  0
 14 26  1  0  0  0  0
 16 18  1  0  0  0  0
 16 27  1  0  0  0  0
 17 18  2  0  0  0  0
M  END
> <PUBCHEM_COMPOUND_CID>
5210422

> <PUBCHEM_COMPOUND_CANONICALIZED>
1

> <PUBCHEM_CACTVS_COMPLEXITY>
461

> <PUBCHEM_CACTVS_HBOND_ACCEPTOR>
6

> <PUBCHEM_CACTVS_HBOND_DONOR>
1

> <PUBCHEM_CACTVS_ROTATABLE_BOND>
2

> <PUBCHEM_CACTVS_SUBSKEYS>
AAADccByMYAAAAAAAAAAAAAAGAAAAAAAAAAwQAAAAAAAAACBAAAAHwAACAAADCzBmAwwyIMAAgCIAqTWSACCAAAlAgAAiAEIZMgIJD7IlJGEYYhkoADI2ceY2aOeAAAAAAACAAAAAAAAAAQAAAAAAAAAAA==

> <PUBCHEM_IUPAC_OPENEYE_NAME>
1-cyclopropyl-6,7-difluoro-4-oxo-quinoline-3-carboxylic acid

> <PUBCHEM_IUPAC_CAS_NAME>
1-cyclopropyl-6,7-difluoro-4-oxo-3-quinolinecarboxylic acid

> <PUBCHEM_IUPAC_NAME_MARKUP>
1-cyclopropyl-6,7-difluoro-4-oxoquinoline-3-carboxylic acid

> <PUBCHEM_IUPAC_NAME>
1-cyclopropyl-6,7-difluoro-4-oxoquinoline-3-carboxylic acid

> <PUBCHEM_IUPAC_SYSTEMATIC_NAME>
1-cyclopropyl-6,7-bis(fluoranyl)-4-oxidanylidene-quinoline-3-carboxylic acid

> <PUBCHEM_IUPAC_TRADITIONAL_NAME>
1-cyclopropyl-6,7-difluoro-4-keto-quinoline-3-carboxylic acid

> <PUBCHEM_IUPAC_INCHI>
InChI=1S/C13H9F2NO3/c14-9-3-7-11(4-10(9)15)16(6-1-2-6)5-8(12(7)17)13(18)19/h3-6H,1-2H2,(H,18,19)

> <PUBCHEM_IUPAC_INCHIKEY>
KNEXGVPHPGXAGF-UHFFFAOYSA-N

> <PUBCHEM_XLOGP3>
1.8

> <PUBCHEM_EXACT_MASS>
265.05504947

> <PUBCHEM_MOLECULAR_FORMULA>
C13H9F2NO3

> <PUBCHEM_MOLECULAR_WEIGHT>
265.21

> <PUBCHEM_SMILES>
C1CC1N2C=C(C(=O)C3=CC(=C(C=C32)F)F)C(=O)O

> <PUBCHEM_CONNECTIVITY_SMILES>
C1CC1N2C=C(C(=O)C3=CC(=C(C=C32)F)F)C(=O)O

> <PUBCHEM_CACTVS_TPSA>
57.6

> <PUBCHEM_MONOISOTOPIC_WEIGHT>
265.05504947

> <PUBCHEM_TOTAL_CHARGE>
0

> <PUBCHEM_HEAVY_ATOM_COUNT>
19

> <PUBCHEM_ATOM_DEF_STEREO_COUNT>
0

> <PUBCHEM_ATOM_UDEF_STEREO_COUNT>
0

> <PUBCHEM_BOND_DEF_STEREO_COUNT>
0

> <PUBCHEM_BOND_UDEF_STEREO_COUNT>
0

> <PUBCHEM_ISOTOPIC_ATOM_COUNT>
0

> <PUBCHEM_COMPONENT_COUNT>
1

> <PUBCHEM_CACTVS_TAUTO_COUNT>
-1

> <PUBCHEM_COORDINATE_TYPE>
1
5
255

> <PUBCHEM_BONDANNOTATIONS>
10  12  8
10  14  8
11  13  8
12  15  8
12  16  8
13  15  8
14  17  8
16  18  8
17  18  8
6  10  8
6  11  8

$$$$
