521261
  -OEChem-05122609412D

 11 11  0     0  0  0  0  0  0999 V2000
    3.7601   -1.1739    0.0000 O   0  0  0  0  0  0  0  0  0  0  0  0
    4.8479    1.1739    0.0000 O   0  0  0  0  0  0  0  0  0  0  0  0
    2.0000   -0.8952    0.0000 O   0  0  0  0  0  0  0  0  0  0  0  0
    3.2601    0.3649    0.0000 C   0  0  0  0  0  0  0  0  0  0  0  0
    4.5691   -0.5861    0.0000 C   0  0  0  0  0  0  0  0  0  0  0  0
    4.2601    0.3649    0.0000 C   0  0  0  0  0  0  0  0  0  0  0  0
    2.9511   -0.5861    0.0000 C   0  0  0  0  0  0  0  0  0  0  0  0
    3.3249    0.9815    0.0000 H   0  0  0  0  0  0  0  0  0  0  0  0
    2.6536    0.4938    0.0000 H   0  0  0  0  0  0  0  0  0  0  0  0
    4.8791   -1.1231    0.0000 H   0  0  0  0  0  0  0  0  0  0  0  0
    5.1355   -0.3340    0.0000 H   0  0  0  0  0  0  0  0  0  0  0  0
  1  5  1  0  0  0  0
  1  7  1  0  0  0  0
  2  6  2  0  0  0  0
  3  7  2  0  0  0  0
  4  6  1  0  0  0  0
  4  7  1  0  0  0  0
  4  8  1  0  0  0  0
  4  9  1  0  0  0  0
  5  6  1  0  0  0  0
  5 10  1  0  0  0  0
  5 11  1  0  0  0  0
M  END
> <PUBCHEM_COMPOUND_CID>
521261

> <PUBCHEM_COMPOUND_CANONICALIZED>
1

> <PUBCHEM_CACTVS_COMPLEXITY>
116

> <PUBCHEM_CACTVS_HBOND_ACCEPTOR>
3

> <PUBCHEM_CACTVS_HBOND_DONOR>
0

> <PUBCHEM_CACTVS_ROTATABLE_BOND>
0

> <PUBCHEM_CACTVS_SUBSKEYS>
AAADcYBgMAAAAAAAAAAAAAAAAAAAASAAAAAAAAAAAAAAAAAAAAAAGgAAAAAACASggAIACAAABAAIAICQCAIAAAAAAAAAAAFAAAAAABQIAAQCAAAEIAAAAAACAAAAAAAAAAAAAAAAAAAAAAAAAAAAAAAAAA==

> <PUBCHEM_IUPAC_OPENEYE_NAME>
tetrahydrofuran-2,4-dione

> <PUBCHEM_IUPAC_CAS_NAME>
oxolane-2,4-dione

> <PUBCHEM_IUPAC_NAME_MARKUP>
oxolane-2,4-dione

> <PUBCHEM_IUPAC_NAME>
oxolane-2,4-dione

> <PUBCHEM_IUPAC_SYSTEMATIC_NAME>
oxolane-2,4-dione

> <PUBCHEM_IUPAC_TRADITIONAL_NAME>
tetronic acid

> <PUBCHEM_IUPAC_INCHI>
InChI=1S/C4H4O3/c5-3-1-4(6)7-2-3/h1-2H2

> <PUBCHEM_IUPAC_INCHIKEY>
JCGNDDUYTRNOFT-UHFFFAOYSA-N

> <PUBCHEM_XLOGP3_AA>
-0.1

> <PUBCHEM_EXACT_MASS>
100.016043985

> <PUBCHEM_MOLECULAR_FORMULA>
C4H4O3

> <PUBCHEM_MOLECULAR_WEIGHT>
100.07

> <PUBCHEM_SMILES>
C1C(=O)COC1=O

> <PUBCHEM_CONNECTIVITY_SMILES>
C1C(=O)COC1=O

> <PUBCHEM_CACTVS_TPSA>
43.4

> <PUBCHEM_MONOISOTOPIC_WEIGHT>
100.016043985

> <PUBCHEM_TOTAL_CHARGE>
0

> <PUBCHEM_HEAVY_ATOM_COUNT>
7

> <PUBCHEM_ATOM_DEF_STEREO_COUNT>
0

> <PUBCHEM_ATOM_UDEF_STEREO_COUNT>
0

> <PUBCHEM_BOND_DEF_STEREO_COUNT>
0

> <PUBCHEM_BOND_UDEF_STEREO_COUNT>
0

> <PUBCHEM_ISOTOPIC_ATOM_COUNT>
0

> <PUBCHEM_COMPONENT_COUNT>
1

> <PUBCHEM_CACTVS_TAUTO_COUNT>
-1

> <PUBCHEM_COORDINATE_TYPE>
1
5
255

$$$$
