5212856
  -OEChem-05122609522D

 33 35  0     0  0  0  0  0  0999 V2000
    6.4144    3.0445    0.0000 Cl  0  0  0  0  0  0  0  0  0  0  0  0
    4.6660    0.0099    0.0000 S   0  0  0  0  0  0  0  0  0  0  0  0
    6.4144   -1.0247    0.0000 O   0  0  0  0  0  0  0  0  0  0  0  0
    4.6660    3.0100    0.0000 O   0  0  0  0  0  0  0  0  0  0  0  0
    5.5321    0.5099    0.0000 C   0  0  0  0  0  0  0  0  0  0  0  0
    5.5321    1.5100    0.0000 C   0  0  0  0  0  0  0  0  0  0  0  0
    3.8000    1.5100    0.0000 C   0  0  0  0  0  0  0  0  0  0  0  0
    6.4260   -0.0247    0.0000 C   0  0  0  0  0  0  0  0  0  0  0  0
    4.6660    2.0100    0.0000 C   0  0  0  0  0  0  0  0  0  0  0  0
    3.8000    0.5099    0.0000 C   0  0  0  0  0  0  0  0  0  0  0  0
    6.4260    2.0446    0.0000 C   0  0  0  0  0  0  0  0  0  0  0  0
    7.2746   -1.5346    0.0000 C   0  0  0  0  0  0  0  0  0  0  0  0
    7.3321    0.4891    0.0000 C   0  0  0  0  0  0  0  0  0  0  0  0
    7.2631   -2.5346    0.0000 C   0  0  0  0  0  0  0  0  0  0  0  0
    7.3321    1.5308    0.0000 C   0  0  0  0  0  0  0  0  0  0  0  0
    2.9061    2.0446    0.0000 C   0  0  0  0  0  0  0  0  0  0  0  0
    2.9061   -0.0247    0.0000 C   0  0  0  0  0  0  0  0  0  0  0  0
    2.0000    1.5308    0.0000 C   0  0  0  0  0  0  0  0  0  0  0  0
    2.0000    0.4891    0.0000 C   0  0  0  0  0  0  0  0  0  0  0  0
    8.1233   -3.0445    0.0000 C   0  0  0  0  0  0  0  0  0  0  0  0
    7.8839   -1.6493    0.0000 H   0  0  0  0  0  0  0  0  0  0  0  0
    7.4934   -0.9545    0.0000 H   0  0  0  0  0  0  0  0  0  0  0  0
    7.8678    0.1771    0.0000 H   0  0  0  0  0  0  0  0  0  0  0  0
    6.6538   -2.4199    0.0000 H   0  0  0  0  0  0  0  0  0  0  0  0
    7.0443   -3.1147    0.0000 H   0  0  0  0  0  0  0  0  0  0  0  0
    7.8678    1.8428    0.0000 H   0  0  0  0  0  0  0  0  0  0  0  0
    2.9132    2.6646    0.0000 H   0  0  0  0  0  0  0  0  0  0  0  0
    2.9132   -0.6447    0.0000 H   0  0  0  0  0  0  0  0  0  0  0  0
    1.4643    1.8428    0.0000 H   0  0  0  0  0  0  0  0  0  0  0  0
    1.4643    0.1771    0.0000 H   0  0  0  0  0  0  0  0  0  0  0  0
    7.8071   -3.5779    0.0000 H   0  0  0  0  0  0  0  0  0  0  0  0
    8.6566   -3.3607    0.0000 H   0  0  0  0  0  0  0  0  0  0  0  0
    8.4394   -2.5112    0.0000 H   0  0  0  0  0  0  0  0  0  0  0  0
  1 11  1  0  0  0  0
  2  5  1  0  0  0  0
  2 10  1  0  0  0  0
  3  8  1  0  0  0  0
  3 12  1  0  0  0  0
  4  9  2  0  0  0  0
  5  6  1  0  0  0  0
  5  8  2  0  0  0  0
  6  9  1  0  0  0  0
  6 11  2  0  0  0  0
  7  9  1  0  0  0  0
  7 10  1  0  0  0  0
  7 16  2  0  0  0  0
  8 13  1  0  0  0  0
 10 17  2  0  0  0  0
 11 15  1  0  0  0  0
 12 14  1  0  0  0  0
 12 21  1  0  0  0  0
 12 22  1  0  0  0  0
 13 15  2  0  0  0  0
 13 23  1  0  0  0  0
 14 20  1  0  0  0  0
 14 24  1  0  0  0  0
 14 25  1  0  0  0  0
 15 26  1  0  0  0  0
 16 18  1  0  0  0  0
 16 27  1  0  0  0  0
 17 19  1  0  0  0  0
 17 28  1  0  0  0  0
 18 19  2  0  0  0  0
 18 29  1  0  0  0  0
 19 30  1  0  0  0  0
 20 31  1  0  0  0  0
 20 32  1  0  0  0  0
 20 33  1  0  0  0  0
M  END
> <PUBCHEM_COMPOUND_CID>
5212856

> <PUBCHEM_COMPOUND_CANONICALIZED>
1

> <PUBCHEM_CACTVS_COMPLEXITY>
362

> <PUBCHEM_CACTVS_HBOND_ACCEPTOR>
3

> <PUBCHEM_CACTVS_HBOND_DONOR>
0

> <PUBCHEM_CACTVS_ROTATABLE_BOND>
3

> <PUBCHEM_CACTVS_SUBSKEYS>
AAADccB4MABEAAAAAAAAAAAAAAAAAAAAAAA0YIAAAAAAAACRQAAAGgYAAAAADAag2CIyB4AABAiIAqBSAAACCAAkLRAIiBsGCsgMJjKlNxqCOSCkwBEorYeKyPCOACABABAFIAAAQAIAIApAAAAAAAAAAA==

> <PUBCHEM_IUPAC_OPENEYE_NAME>
1-chloro-4-propoxy-thioxanthen-9-one

> <PUBCHEM_IUPAC_CAS_NAME>
1-chloro-4-propoxy-9-thioxanthenone

> <PUBCHEM_IUPAC_NAME_MARKUP>
1-chloro-4-propoxythioxanthen-9-one

> <PUBCHEM_IUPAC_NAME>
1-chloro-4-propoxythioxanthen-9-one

> <PUBCHEM_IUPAC_SYSTEMATIC_NAME>
1-chloranyl-4-propoxy-thioxanthen-9-one

> <PUBCHEM_IUPAC_TRADITIONAL_NAME>
1-chloro-4-propoxy-thioxanthen-9-one

> <PUBCHEM_IUPAC_INCHI>
InChI=1S/C16H13ClO2S/c1-2-9-19-12-8-7-11(17)14-15(18)10-5-3-4-6-13(10)20-16(12)14/h3-8H,2,9H2,1H3

> <PUBCHEM_IUPAC_INCHIKEY>
VKQJCUYEEABXNK-UHFFFAOYSA-N

> <PUBCHEM_XLOGP3_AA>
5

> <PUBCHEM_EXACT_MASS>
304.0324785

> <PUBCHEM_MOLECULAR_FORMULA>
C16H13ClO2S

> <PUBCHEM_MOLECULAR_WEIGHT>
304.8

> <PUBCHEM_SMILES>
CCCOC1=C2C(=C(C=C1)Cl)C(=O)C3=CC=CC=C3S2

> <PUBCHEM_CONNECTIVITY_SMILES>
CCCOC1=C2C(=C(C=C1)Cl)C(=O)C3=CC=CC=C3S2

> <PUBCHEM_CACTVS_TPSA>
51.6

> <PUBCHEM_MONOISOTOPIC_WEIGHT>
304.0324785

> <PUBCHEM_TOTAL_CHARGE>
0

> <PUBCHEM_HEAVY_ATOM_COUNT>
20

> <PUBCHEM_ATOM_DEF_STEREO_COUNT>
0

> <PUBCHEM_ATOM_UDEF_STEREO_COUNT>
0

> <PUBCHEM_BOND_DEF_STEREO_COUNT>
0

> <PUBCHEM_BOND_UDEF_STEREO_COUNT>
0

> <PUBCHEM_ISOTOPIC_ATOM_COUNT>
0

> <PUBCHEM_COMPONENT_COUNT>
1

> <PUBCHEM_CACTVS_TAUTO_COUNT>
-1

> <PUBCHEM_COORDINATE_TYPE>
1
5
255

> <PUBCHEM_BONDANNOTATIONS>
10  17  8
11  15  8
13  15  8
16  18  8
17  19  8
18  19  8
2  10  8
2  5  8
5  6  8
5  8  8
6  11  8
6  9  8
7  10  8
7  16  8
7  9  8
8  13  8

$$$$
