521998
  -OEChem-05122610032D

 22 21  0     0  0  0  0  0  0999 V2000
    4.4768    4.6200    0.0000 S   0  0  0  0  0  0  0  0  0  0  0  0
    4.4768    5.6200    0.0000 O   0  0  0  0  0  0  0  0  0  0  0  0
    5.4768    4.6200    0.0000 O   0  0  0  0  0  0  0  0  0  0  0  0
    3.4768    4.6200    0.0000 O   0  0  0  0  0  0  0  0  0  0  0  0
    0.5369    2.7150    0.0000 O   0  0  0  0  0  0  0  0  0  0  0  0
    4.4768    3.6200    0.0000 C   0  0  0  0  0  0  0  0  0  0  0  0
    4.4768    1.6200    0.0000 C   0  0  0  0  0  0  0  0  0  0  0  0
    5.3429    3.1200    0.0000 C   0  0  0  0  0  0  0  0  0  0  0  0
    3.6108    3.1200    0.0000 C   0  0  0  0  0  0  0  0  0  0  0  0
    5.3429    2.1200    0.0000 C   0  0  0  0  0  0  0  0  0  0  0  0
    3.6108    2.1200    0.0000 C   0  0  0  0  0  0  0  0  0  0  0  0
    4.4768    0.6200    0.0000 C   0  0  0  0  0  0  0  0  0  0  0  0
    5.8798    3.4300    0.0000 H   0  0  0  0  0  0  0  0  0  0  0  0
    3.0739    3.4300    0.0000 H   0  0  0  0  0  0  0  0  0  0  0  0
    5.8798    1.8100    0.0000 H   0  0  0  0  0  0  0  0  0  0  0  0
    3.0739    1.8100    0.0000 H   0  0  0  0  0  0  0  0  0  0  0  0
    3.8568    0.6200    0.0000 H   0  0  0  0  0  0  0  0  0  0  0  0
    4.4768    0.0000    0.0000 H   0  0  0  0  0  0  0  0  0  0  0  0
    5.0968    0.6200    0.0000 H   0  0  0  0  0  0  0  0  0  0  0  0
    5.0138    5.9300    0.0000 H   0  0  0  0  0  0  0  0  0  0  0  0
    1.0739    3.0250    0.0000 H   0  0  0  0  0  0  0  0  0  0  0  0
    0.0000    3.0250    0.0000 H   0  0  0  0  0  0  0  0  0  0  0  0
  1  2  1  0  0  0  0
  1  3  2  0  0  0  0
  1  4  2  0  0  0  0
  1  6  1  0  0  0  0
  2 20  1  0  0  0  0
  5 21  1  0  0  0  0
  5 22  1  0  0  0  0
  6  8  2  0  0  0  0
  6  9  1  0  0  0  0
  7 10  2  0  0  0  0
  7 11  1  0  0  0  0
  7 12  1  0  0  0  0
  8 10  1  0  0  0  0
  8 13  1  0  0  0  0
  9 11  2  0  0  0  0
  9 14  1  0  0  0  0
 10 15  1  0  0  0  0
 11 16  1  0  0  0  0
 12 17  1  0  0  0  0
 12 18  1  0  0  0  0
 12 19  1  0  0  0  0
M  END
> <PUBCHEM_COMPOUND_CID>
521998

> <PUBCHEM_COMPOUND_CANONICALIZED>
1

> <PUBCHEM_CACTVS_COMPLEXITY>
206

> <PUBCHEM_CACTVS_HBOND_ACCEPTOR>
4

> <PUBCHEM_CACTVS_HBOND_DONOR>
2

> <PUBCHEM_CACTVS_ROTATABLE_BOND>
1

> <PUBCHEM_CACTVS_SUBSKEYS>
AAADccBgOABAAAAAAAAAAAAAAAAAAAAAAAAwAAAAAAAAAAABAAAAGAQACAAADACAWAAyAYAAAIKAAiBCAHBCAEAgAAAIiBgAAIgIICKAERCAIAAggAAIiAcAgAAOEAAAAAAAAAAgAAAAAAAAAAAAAAAAAA==

> <PUBCHEM_IUPAC_OPENEYE_NAME>
4-methylbenzenesulfonic acid;hydrate

> <PUBCHEM_IUPAC_CAS_NAME>
4-methylbenzenesulfonic acid;hydrate

> <PUBCHEM_IUPAC_NAME_MARKUP>
4-methylbenzenesulfonic acid;hydrate

> <PUBCHEM_IUPAC_NAME>
4-methylbenzenesulfonic acid;hydrate

> <PUBCHEM_IUPAC_SYSTEMATIC_NAME>
4-methylbenzenesulfonic acid;hydrate

> <PUBCHEM_IUPAC_TRADITIONAL_NAME>
tosylic acid;hydrate

> <PUBCHEM_IUPAC_INCHI>
InChI=1S/C7H8O3S.H2O/c1-6-2-4-7(5-3-6)11(8,9)10;/h2-5H,1H3,(H,8,9,10);1H2

> <PUBCHEM_IUPAC_INCHIKEY>
KJIFKLIQANRMOU-UHFFFAOYSA-N

> <PUBCHEM_EXACT_MASS>
190.02997997

> <PUBCHEM_MOLECULAR_FORMULA>
C7H10O4S

> <PUBCHEM_MOLECULAR_WEIGHT>
190.22

> <PUBCHEM_SMILES>
CC1=CC=C(C=C1)S(=O)(=O)O.O

> <PUBCHEM_CONNECTIVITY_SMILES>
CC1=CC=C(C=C1)S(=O)(=O)O.O

> <PUBCHEM_CACTVS_TPSA>
63.8

> <PUBCHEM_MONOISOTOPIC_WEIGHT>
190.02997997

> <PUBCHEM_TOTAL_CHARGE>
0

> <PUBCHEM_HEAVY_ATOM_COUNT>
12

> <PUBCHEM_ATOM_DEF_STEREO_COUNT>
0

> <PUBCHEM_ATOM_UDEF_STEREO_COUNT>
0

> <PUBCHEM_BOND_DEF_STEREO_COUNT>
0

> <PUBCHEM_BOND_UDEF_STEREO_COUNT>
0

> <PUBCHEM_ISOTOPIC_ATOM_COUNT>
0

> <PUBCHEM_COMPONENT_COUNT>
2

> <PUBCHEM_CACTVS_TAUTO_COUNT>
-1

> <PUBCHEM_COORDINATE_TYPE>
1
5
255

> <PUBCHEM_BONDANNOTATIONS>
6  8  8
6  9  8
7  10  8
7  11  8
8  10  8
9  11  8

$$$$
