521983
  -OEChem-05122608182D

 19 18  0     0  0  0  0  0  0999 V2000
    3.7321   -0.4330    0.0000 P   0  0  0  0  0  0  0  0  0  0  0  0
    4.5981    0.0670    0.0000 O   0  0  0  0  0  0  0  0  0  0  0  0
    2.8660   -0.9330    0.0000 O   0  0  0  0  0  0  0  0  0  0  0  0
    4.2321   -1.2990    0.0000 O   0  0  0  0  0  0  0  0  0  0  0  0
    3.2321    0.4330    0.0000 C   0  0  0  0  0  0  0  0  0  0  0  0
    3.7321    1.2990    0.0000 C   0  0  0  0  0  0  0  0  0  0  0  0
    5.4641   -0.4330    0.0000 C   0  0  0  0  0  0  0  0  0  0  0  0
    2.0000   -0.4330    0.0000 C   0  0  0  0  0  0  0  0  0  0  0  0
    2.7571    0.8315    0.0000 H   0  0  0  0  0  0  0  0  0  0  0  0
    2.7571    0.0345    0.0000 H   0  0  0  0  0  0  0  0  0  0  0  0
    4.2690    0.9890    0.0000 H   0  0  0  0  0  0  0  0  0  0  0  0
    4.0421    1.8360    0.0000 H   0  0  0  0  0  0  0  0  0  0  0  0
    3.1951    1.6090    0.0000 H   0  0  0  0  0  0  0  0  0  0  0  0
    5.1541   -0.9699    0.0000 H   0  0  0  0  0  0  0  0  0  0  0  0
    6.0010   -0.7430    0.0000 H   0  0  0  0  0  0  0  0  0  0  0  0
    5.7741    0.1039    0.0000 H   0  0  0  0  0  0  0  0  0  0  0  0
    2.3100    0.1039    0.0000 H   0  0  0  0  0  0  0  0  0  0  0  0
    1.4631   -0.1230    0.0000 H   0  0  0  0  0  0  0  0  0  0  0  0
    1.6900   -0.9699    0.0000 H   0  0  0  0  0  0  0  0  0  0  0  0
  1  2  1  0  0  0  0
  1  3  1  0  0  0  0
  1  4  2  0  0  0  0
  1  5  1  0  0  0  0
  2  7  1  0  0  0  0
  3  8  1  0  0  0  0
  5  6  1  0  0  0  0
  5  9  1  0  0  0  0
  5 10  1  0  0  0  0
  6 11  1  0  0  0  0
  6 12  1  0  0  0  0
  6 13  1  0  0  0  0
  7 14  1  0  0  0  0
  7 15  1  0  0  0  0
  7 16  1  0  0  0  0
  8 17  1  0  0  0  0
  8 18  1  0  0  0  0
  8 19  1  0  0  0  0
M  END
> <PUBCHEM_COMPOUND_CID>
521983

> <PUBCHEM_COMPOUND_CANONICALIZED>
1

> <PUBCHEM_CACTVS_COMPLEXITY>
93.5

> <PUBCHEM_CACTVS_HBOND_ACCEPTOR>
3

> <PUBCHEM_CACTVS_HBOND_DONOR>
0

> <PUBCHEM_CACTVS_ROTATABLE_BOND>
3

> <PUBCHEM_CACTVS_SUBSKEYS>
AAADccBgMAIAAAAAAAAAAAAAAAAAAAAAAAAAAAAAAAAAAAAAAAAAGggAACAAAACIAAICAAAAARAAQAAAAIAAAAAAAAAAAAAAAAAAAAAAAAAAAAAAAAAAAAAAAAAAAAAAAAAAAAAAAAAAAAAAAAAAAAAAAA==

> <PUBCHEM_IUPAC_OPENEYE_NAME>
1-dimethoxyphosphorylethane

> <PUBCHEM_IUPAC_CAS_NAME>
1-dimethoxyphosphorylethane

> <PUBCHEM_IUPAC_NAME_MARKUP>
1-dimethoxyphosphorylethane

> <PUBCHEM_IUPAC_NAME>
1-dimethoxyphosphorylethane

> <PUBCHEM_IUPAC_SYSTEMATIC_NAME>
1-dimethoxyphosphorylethane

> <PUBCHEM_IUPAC_TRADITIONAL_NAME>
1-dimethoxyphosphorylethane

> <PUBCHEM_IUPAC_INCHI>
InChI=1S/C4H11O3P/c1-4-8(5,6-2)7-3/h4H2,1-3H3

> <PUBCHEM_IUPAC_INCHIKEY>
YHQMSHVVGOSZEW-UHFFFAOYSA-N

> <PUBCHEM_XLOGP3_AA>
-0.2

> <PUBCHEM_EXACT_MASS>
138.04458121

> <PUBCHEM_MOLECULAR_FORMULA>
C4H11O3P

> <PUBCHEM_MOLECULAR_WEIGHT>
138.10

> <PUBCHEM_SMILES>
CCP(=O)(OC)OC

> <PUBCHEM_CONNECTIVITY_SMILES>
CCP(=O)(OC)OC

> <PUBCHEM_CACTVS_TPSA>
35.5

> <PUBCHEM_MONOISOTOPIC_WEIGHT>
138.04458121

> <PUBCHEM_TOTAL_CHARGE>
0

> <PUBCHEM_HEAVY_ATOM_COUNT>
8

> <PUBCHEM_ATOM_DEF_STEREO_COUNT>
0

> <PUBCHEM_ATOM_UDEF_STEREO_COUNT>
0

> <PUBCHEM_BOND_DEF_STEREO_COUNT>
0

> <PUBCHEM_BOND_UDEF_STEREO_COUNT>
0

> <PUBCHEM_ISOTOPIC_ATOM_COUNT>
0

> <PUBCHEM_COMPONENT_COUNT>
1

> <PUBCHEM_CACTVS_TAUTO_COUNT>
-1

> <PUBCHEM_COORDINATE_TYPE>
1
5
255

$$$$
