524687
  -OEChem-05122608432D

 33 33  0     0  0  0  0  0  0999 V2000
    2.8660    1.4821    0.0000 C   0  0  0  0  0  0  0  0  0  0  0  0
    2.0000    0.9821    0.0000 C   0  0  0  0  0  0  0  0  0  0  0  0
    2.0000    1.9821    0.0000 C   0  0  0  0  0  0  0  0  0  0  0  0
    3.8660    1.4821    0.0000 C   0  0  0  0  0  0  0  0  0  0  0  0
    4.3660    0.6160    0.0000 C   0  0  0  0  0  0  0  0  0  0  0  0
    5.3660    0.6160    0.0000 C   0  0  0  0  0  0  0  0  0  0  0  0
    5.8660   -0.2500    0.0000 C   0  0  0  0  0  0  0  0  0  0  0  0
    6.8660   -0.2500    0.0000 C   0  0  0  0  0  0  0  0  0  0  0  0
    7.3660   -1.1160    0.0000 C   0  0  0  0  0  0  0  0  0  0  0  0
    8.3660   -1.1160    0.0000 C   0  0  0  0  0  0  0  0  0  0  0  0
    8.8660   -1.9821    0.0000 C   0  0  0  0  0  0  0  0  0  0  0  0
    3.0265    0.8832    0.0000 H   0  0  0  0  0  0  0  0  0  0  0  0
    1.3894    0.8744    0.0000 H   0  0  0  0  0  0  0  0  0  0  0  0
    2.2121    0.3994    0.0000 H   0  0  0  0  0  0  0  0  0  0  0  0
    2.2121    2.5647    0.0000 H   0  0  0  0  0  0  0  0  0  0  0  0
    1.3894    2.0897    0.0000 H   0  0  0  0  0  0  0  0  0  0  0  0
    4.4486    1.6941    0.0000 H   0  0  0  0  0  0  0  0  0  0  0  0
    3.7584    2.0926    0.0000 H   0  0  0  0  0  0  0  0  0  0  0  0
    3.7834    0.4040    0.0000 H   0  0  0  0  0  0  0  0  0  0  0  0
    4.4737    0.0054    0.0000 H   0  0  0  0  0  0  0  0  0  0  0  0
    5.9486    0.8281    0.0000 H   0  0  0  0  0  0  0  0  0  0  0  0
    5.2584    1.2266    0.0000 H   0  0  0  0  0  0  0  0  0  0  0  0
    5.2834   -0.4621    0.0000 H   0  0  0  0  0  0  0  0  0  0  0  0
    5.9737   -0.8606    0.0000 H   0  0  0  0  0  0  0  0  0  0  0  0
    7.4486   -0.0379    0.0000 H   0  0  0  0  0  0  0  0  0  0  0  0
    6.7584    0.3606    0.0000 H   0  0  0  0  0  0  0  0  0  0  0  0
    6.7834   -1.3281    0.0000 H   0  0  0  0  0  0  0  0  0  0  0  0
    7.4737   -1.7266    0.0000 H   0  0  0  0  0  0  0  0  0  0  0  0
    8.9486   -0.9040    0.0000 H   0  0  0  0  0  0  0  0  0  0  0  0
    8.2584   -0.5054    0.0000 H   0  0  0  0  0  0  0  0  0  0  0  0
    8.3291   -2.2921    0.0000 H   0  0  0  0  0  0  0  0  0  0  0  0
    9.1760   -2.5190    0.0000 H   0  0  0  0  0  0  0  0  0  0  0  0
    9.4030   -1.6721    0.0000 H   0  0  0  0  0  0  0  0  0  0  0  0
  1  2  1  0  0  0  0
  1  3  1  0  0  0  0
  1  4  1  0  0  0  0
  1 12  1  0  0  0  0
  2  3  1  0  0  0  0
  2 13  1  0  0  0  0
  2 14  1  0  0  0  0
  3 15  1  0  0  0  0
  3 16  1  0  0  0  0
  4  5  1  0  0  0  0
  4 17  1  0  0  0  0
  4 18  1  0  0  0  0
  5  6  1  0  0  0  0
  5 19  1  0  0  0  0
  5 20  1  0  0  0  0
  6  7  1  0  0  0  0
  6 21  1  0  0  0  0
  6 22  1  0  0  0  0
  7  8  1  0  0  0  0
  7 23  1  0  0  0  0
  7 24  1  0  0  0  0
  8  9  1  0  0  0  0
  8 25  1  0  0  0  0
  8 26  1  0  0  0  0
  9 10  1  0  0  0  0
  9 27  1  0  0  0  0
  9 28  1  0  0  0  0
 10 11  1  0  0  0  0
 10 29  1  0  0  0  0
 10 30  1  0  0  0  0
 11 31  1  0  0  0  0
 11 32  1  0  0  0  0
 11 33  1  0  0  0  0
M  END
> <PUBCHEM_COMPOUND_CID>
524687

> <PUBCHEM_COMPOUND_CANONICALIZED>
1

> <PUBCHEM_CACTVS_COMPLEXITY>
82

> <PUBCHEM_CACTVS_HBOND_ACCEPTOR>
0

> <PUBCHEM_CACTVS_HBOND_DONOR>
0

> <PUBCHEM_CACTVS_ROTATABLE_BOND>
7

> <PUBCHEM_CACTVS_SUBSKEYS>
AAADceBwAAAAAAAAAAAAAAAAGAAAAAAAAAAAAAAAAAAAAAAAAAAAGAAAAAAADQCAAAACAAAAAAAAAAAAAAAAAAAAAAAAAAAAAAAAAAIAAAAAAAAAAAAAAAEAgMAMAAAAAAAAAAAAAAAAAAAAAAAAAAAAAA==

> <PUBCHEM_IUPAC_OPENEYE_NAME>
octylcyclopropane

> <PUBCHEM_IUPAC_CAS_NAME>
octylcyclopropane

> <PUBCHEM_IUPAC_NAME_MARKUP>
octylcyclopropane

> <PUBCHEM_IUPAC_NAME>
octylcyclopropane

> <PUBCHEM_IUPAC_SYSTEMATIC_NAME>
octylcyclopropane

> <PUBCHEM_IUPAC_TRADITIONAL_NAME>
octylcyclopropane

> <PUBCHEM_IUPAC_INCHI>
InChI=1S/C11H22/c1-2-3-4-5-6-7-8-11-9-10-11/h11H,2-10H2,1H3

> <PUBCHEM_IUPAC_INCHIKEY>
VFWTZFZJUAJMJB-UHFFFAOYSA-N

> <PUBCHEM_XLOGP3_AA>
5.7

> <PUBCHEM_EXACT_MASS>
154.172150702

> <PUBCHEM_MOLECULAR_FORMULA>
C11H22

> <PUBCHEM_MOLECULAR_WEIGHT>
154.29

> <PUBCHEM_SMILES>
CCCCCCCCC1CC1

> <PUBCHEM_CONNECTIVITY_SMILES>
CCCCCCCCC1CC1

> <PUBCHEM_CACTVS_TPSA>
0

> <PUBCHEM_MONOISOTOPIC_WEIGHT>
154.172150702

> <PUBCHEM_TOTAL_CHARGE>
0

> <PUBCHEM_HEAVY_ATOM_COUNT>
11

> <PUBCHEM_ATOM_DEF_STEREO_COUNT>
0

> <PUBCHEM_ATOM_UDEF_STEREO_COUNT>
0

> <PUBCHEM_BOND_DEF_STEREO_COUNT>
0

> <PUBCHEM_BOND_UDEF_STEREO_COUNT>
0

> <PUBCHEM_ISOTOPIC_ATOM_COUNT>
0

> <PUBCHEM_COMPONENT_COUNT>
1

> <PUBCHEM_CACTVS_TAUTO_COUNT>
-1

> <PUBCHEM_COORDINATE_TYPE>
1
5
255

$$$$
