525401
  -OEChem-05122608202D

 59 58  0     0  0  0  0  0  0999 V2000
   18.0885   -0.7990    0.0000 F   0  0  0  0  0  0  0  0  0  0  0  0
   17.0885    0.9330    0.0000 F   0  0  0  0  0  0  0  0  0  0  0  0
   19.3205    1.0670    0.0000 F   0  0  0  0  0  0  0  0  0  0  0  0
   17.9545    1.4330    0.0000 F   0  0  0  0  0  0  0  0  0  0  0  0
   18.9545   -0.2990    0.0000 F   0  0  0  0  0  0  0  0  0  0  0  0
   15.8564    0.0670    0.0000 O   0  0  0  0  0  0  0  0  0  0  0  0
   16.7224   -1.4330    0.0000 O   0  0  0  0  0  0  0  0  0  0  0  0
    8.9282    0.0670    0.0000 C   0  0  0  0  0  0  0  0  0  0  0  0
    8.0622   -0.4330    0.0000 C   0  0  0  0  0  0  0  0  0  0  0  0
    9.7942   -0.4330    0.0000 C   0  0  0  0  0  0  0  0  0  0  0  0
    7.1962    0.0670    0.0000 C   0  0  0  0  0  0  0  0  0  0  0  0
   10.6603    0.0670    0.0000 C   0  0  0  0  0  0  0  0  0  0  0  0
    6.3301   -0.4330    0.0000 C   0  0  0  0  0  0  0  0  0  0  0  0
   11.5263   -0.4330    0.0000 C   0  0  0  0  0  0  0  0  0  0  0  0
    5.4641    0.0670    0.0000 C   0  0  0  0  0  0  0  0  0  0  0  0
   12.3923    0.0670    0.0000 C   0  0  0  0  0  0  0  0  0  0  0  0
    4.5981   -0.4330    0.0000 C   0  0  0  0  0  0  0  0  0  0  0  0
   13.2583   -0.4330    0.0000 C   0  0  0  0  0  0  0  0  0  0  0  0
    3.7320    0.0670    0.0000 C   0  0  0  0  0  0  0  0  0  0  0  0
   14.1244    0.0670    0.0000 C   0  0  0  0  0  0  0  0  0  0  0  0
    2.8660   -0.4330    0.0000 C   0  0  0  0  0  0  0  0  0  0  0  0
   14.9904   -0.4330    0.0000 C   0  0  0  0  0  0  0  0  0  0  0  0
    2.0000    0.0670    0.0000 C   0  0  0  0  0  0  0  0  0  0  0  0
   16.7224   -0.4330    0.0000 C   0  0  0  0  0  0  0  0  0  0  0  0
   17.5885    0.0670    0.0000 C   0  0  0  0  0  0  0  0  0  0  0  0
   18.4545    0.5670    0.0000 C   0  0  0  0  0  0  0  0  0  0  0  0
    9.3267    0.5419    0.0000 H   0  0  0  0  0  0  0  0  0  0  0  0
    8.5297    0.5419    0.0000 H   0  0  0  0  0  0  0  0  0  0  0  0
    7.6636   -0.9080    0.0000 H   0  0  0  0  0  0  0  0  0  0  0  0
    8.4607   -0.9080    0.0000 H   0  0  0  0  0  0  0  0  0  0  0  0
    9.3957   -0.9080    0.0000 H   0  0  0  0  0  0  0  0  0  0  0  0
   10.1928   -0.9080    0.0000 H   0  0  0  0  0  0  0  0  0  0  0  0
    7.5947    0.5419    0.0000 H   0  0  0  0  0  0  0  0  0  0  0  0
    6.7976    0.5419    0.0000 H   0  0  0  0  0  0  0  0  0  0  0  0
   11.0588    0.5419    0.0000 H   0  0  0  0  0  0  0  0  0  0  0  0
   10.2617    0.5419    0.0000 H   0  0  0  0  0  0  0  0  0  0  0  0
    5.9316   -0.9080    0.0000 H   0  0  0  0  0  0  0  0  0  0  0  0
    6.7287   -0.9080    0.0000 H   0  0  0  0  0  0  0  0  0  0  0  0
   11.1278   -0.9080    0.0000 H   0  0  0  0  0  0  0  0  0  0  0  0
   11.9248   -0.9080    0.0000 H   0  0  0  0  0  0  0  0  0  0  0  0
    5.8626    0.5419    0.0000 H   0  0  0  0  0  0  0  0  0  0  0  0
    5.0656    0.5419    0.0000 H   0  0  0  0  0  0  0  0  0  0  0  0
   12.7908    0.5419    0.0000 H   0  0  0  0  0  0  0  0  0  0  0  0
   11.9938    0.5419    0.0000 H   0  0  0  0  0  0  0  0  0  0  0  0
    4.1996   -0.9080    0.0000 H   0  0  0  0  0  0  0  0  0  0  0  0
    4.9966   -0.9080    0.0000 H   0  0  0  0  0  0  0  0  0  0  0  0
   12.8598   -0.9080    0.0000 H   0  0  0  0  0  0  0  0  0  0  0  0
   13.6569   -0.9080    0.0000 H   0  0  0  0  0  0  0  0  0  0  0  0
    4.1306    0.5419    0.0000 H   0  0  0  0  0  0  0  0  0  0  0  0
    3.3335    0.5419    0.0000 H   0  0  0  0  0  0  0  0  0  0  0  0
   14.5229    0.5419    0.0000 H   0  0  0  0  0  0  0  0  0  0  0  0
   13.7258    0.5419    0.0000 H   0  0  0  0  0  0  0  0  0  0  0  0
    2.4675   -0.9080    0.0000 H   0  0  0  0  0  0  0  0  0  0  0  0
    3.2646   -0.9080    0.0000 H   0  0  0  0  0  0  0  0  0  0  0  0
   14.5919   -0.9080    0.0000 H   0  0  0  0  0  0  0  0  0  0  0  0
   15.3889   -0.9080    0.0000 H   0  0  0  0  0  0  0  0  0  0  0  0
    2.3100    0.6039    0.0000 H   0  0  0  0  0  0  0  0  0  0  0  0
    1.4631    0.3770    0.0000 H   0  0  0  0  0  0  0  0  0  0  0  0
    1.6900   -0.4699    0.0000 H   0  0  0  0  0  0  0  0  0  0  0  0
  1 25  1  0  0  0  0
  2 25  1  0  0  0  0
  3 26  1  0  0  0  0
  4 26  1  0  0  0  0
  5 26  1  0  0  0  0
  6 22  1  0  0  0  0
  6 24  1  0  0  0  0
  7 24  2  0  0  0  0
  8  9  1  0  0  0  0
  8 10  1  0  0  0  0
  8 27  1  0  0  0  0
  8 28  1  0  0  0  0
  9 11  1  0  0  0  0
  9 29  1  0  0  0  0
  9 30  1  0  0  0  0
 10 12  1  0  0  0  0
 10 31  1  0  0  0  0
 10 32  1  0  0  0  0
 11 13  1  0  0  0  0
 11 33  1  0  0  0  0
 11 34  1  0  0  0  0
 12 14  1  0  0  0  0
 12 35  1  0  0  0  0
 12 36  1  0  0  0  0
 13 15  1  0  0  0  0
 13 37  1  0  0  0  0
 13 38  1  0  0  0  0
 14 16  1  0  0  0  0
 14 39  1  0  0  0  0
 14 40  1  0  0  0  0
 15 17  1  0  0  0  0
 15 41  1  0  0  0  0
 15 42  1  0  0  0  0
 16 18  1  0  0  0  0
 16 43  1  0  0  0  0
 16 44  1  0  0  0  0
 17 19  1  0  0  0  0
 17 45  1  0  0  0  0
 17 46  1  0  0  0  0
 18 20  1  0  0  0  0
 18 47  1  0  0  0  0
 18 48  1  0  0  0  0
 19 21  1  0  0  0  0
 19 49  1  0  0  0  0
 19 50  1  0  0  0  0
 20 22  1  0  0  0  0
 20 51  1  0  0  0  0
 20 52  1  0  0  0  0
 21 23  1  0  0  0  0
 21 53  1  0  0  0  0
 21 54  1  0  0  0  0
 22 55  1  0  0  0  0
 22 56  1  0  0  0  0
 23 57  1  0  0  0  0
 23 58  1  0  0  0  0
 23 59  1  0  0  0  0
 24 25  1  0  0  0  0
 25 26  1  0  0  0  0
M  END
> <PUBCHEM_COMPOUND_CID>
525401

> <PUBCHEM_COMPOUND_CANONICALIZED>
1

> <PUBCHEM_CACTVS_COMPLEXITY>
356

> <PUBCHEM_CACTVS_HBOND_ACCEPTOR>
7

> <PUBCHEM_CACTVS_HBOND_DONOR>
0

> <PUBCHEM_CACTVS_ROTATABLE_BOND>
17

> <PUBCHEM_CACTVS_SUBSKEYS>
AAADcfB4McAAAAAAAAAAAAAAAAAAAAAAAAAAAAAAAAAAAAAAAAAAGwAAAAAACACggBICCAAABAAIAACQCAAAAAAAAAAAAAEAAAAAAAIAAAACAAAEAAAAAAGAwKAAAAAAAAAAAAAAAAAAAAAAAAAAAAAAAA==

> <PUBCHEM_IUPAC_OPENEYE_NAME>
hexadecyl 2,2,3,3,3-pentafluoropropanoate

> <PUBCHEM_IUPAC_CAS_NAME>
2,2,3,3,3-pentafluoropropanoic acid hexadecyl ester

> <PUBCHEM_IUPAC_NAME_MARKUP>
hexadecyl 2,2,3,3,3-pentafluoropropanoate

> <PUBCHEM_IUPAC_NAME>
hexadecyl 2,2,3,3,3-pentafluoropropanoate

> <PUBCHEM_IUPAC_SYSTEMATIC_NAME>
hexadecyl 2,2,3,3,3-pentakis(fluoranyl)propanoate

> <PUBCHEM_IUPAC_TRADITIONAL_NAME>
2,2,3,3,3-pentafluoropropionic acid cetyl ester

> <PUBCHEM_IUPAC_INCHI>
InChI=1S/C19H33F5O2/c1-2-3-4-5-6-7-8-9-10-11-12-13-14-15-16-26-17(25)18(20,21)19(22,23)24/h2-16H2,1H3

> <PUBCHEM_IUPAC_INCHIKEY>
MKXNHVLXIYBJIK-UHFFFAOYSA-N

> <PUBCHEM_XLOGP3>
9.5

> <PUBCHEM_EXACT_MASS>
388.24007110

> <PUBCHEM_MOLECULAR_FORMULA>
C19H33F5O2

> <PUBCHEM_MOLECULAR_WEIGHT>
388.5

> <PUBCHEM_SMILES>
CCCCCCCCCCCCCCCCOC(=O)C(C(F)(F)F)(F)F

> <PUBCHEM_CONNECTIVITY_SMILES>
CCCCCCCCCCCCCCCCOC(=O)C(C(F)(F)F)(F)F

> <PUBCHEM_CACTVS_TPSA>
26.3

> <PUBCHEM_MONOISOTOPIC_WEIGHT>
388.24007110

> <PUBCHEM_TOTAL_CHARGE>
0

> <PUBCHEM_HEAVY_ATOM_COUNT>
26

> <PUBCHEM_ATOM_DEF_STEREO_COUNT>
0

> <PUBCHEM_ATOM_UDEF_STEREO_COUNT>
0

> <PUBCHEM_BOND_DEF_STEREO_COUNT>
0

> <PUBCHEM_BOND_UDEF_STEREO_COUNT>
0

> <PUBCHEM_ISOTOPIC_ATOM_COUNT>
0

> <PUBCHEM_COMPONENT_COUNT>
1

> <PUBCHEM_CACTVS_TAUTO_COUNT>
-1

> <PUBCHEM_COORDINATE_TYPE>
1
5
255

$$$$
