5282805
  -OEChem-05122610022D

 58 57  0     0  0  0  0  0  0999 V2000
    2.5369    0.4400    0.0000 O   0  0  0  0  0  0  0  0  0  0  0  0
    3.4030   -1.0600    0.0000 O   0  0  0  0  0  0  0  0  0  0  0  0
    7.7331    0.4400    0.0000 C   0  0  0  0  0  0  0  0  0  0  0  0
    8.5991   -0.0600    0.0000 C   0  0  0  0  0  0  0  0  0  0  0  0
    6.8671   -0.0600    0.0000 C   0  0  0  0  0  0  0  0  0  0  0  0
    9.4651    0.4400    0.0000 C   0  0  0  0  0  0  0  0  0  0  0  0
    6.0010    0.4400    0.0000 C   0  0  0  0  0  0  0  0  0  0  0  0
   10.3312   -0.0600    0.0000 C   0  0  0  0  0  0  0  0  0  0  0  0
    5.1350   -0.0600    0.0000 C   0  0  0  0  0  0  0  0  0  0  0  0
   11.1972    0.4400    0.0000 C   0  0  0  0  0  0  0  0  0  0  0  0
    4.2690    0.4400    0.0000 C   0  0  0  0  0  0  0  0  0  0  0  0
   12.0632   -0.0600    0.0000 C   0  0  0  0  0  0  0  0  0  0  0  0
   17.2594   -0.0600    0.0000 C   0  0  0  0  0  0  0  0  0  0  0  0
   18.1254    0.4400    0.0000 C   0  0  0  0  0  0  0  0  0  0  0  0
   16.3933    0.4400    0.0000 C   0  0  0  0  0  0  0  0  0  0  0  0
   18.9914   -0.0600    0.0000 C   0  0  0  0  0  0  0  0  0  0  0  0
   12.9292    0.4400    0.0000 C   0  0  0  0  0  0  0  0  0  0  0  0
    3.4030   -0.0600    0.0000 C   0  0  0  0  0  0  0  0  0  0  0  0
   13.7953   -0.0600    0.0000 C   0  0  0  0  0  0  0  0  0  0  0  0
   15.5273   -0.0600    0.0000 C   0  0  0  0  0  0  0  0  0  0  0  0
   14.6613    0.4400    0.0000 C   0  0  0  0  0  0  0  0  0  0  0  0
   19.8574    0.4400    0.0000 C   0  0  0  0  0  0  0  0  0  0  0  0
    8.1316    0.9149    0.0000 H   0  0  0  0  0  0  0  0  0  0  0  0
    7.3346    0.9149    0.0000 H   0  0  0  0  0  0  0  0  0  0  0  0
    8.2006   -0.5349    0.0000 H   0  0  0  0  0  0  0  0  0  0  0  0
    8.9976   -0.5349    0.0000 H   0  0  0  0  0  0  0  0  0  0  0  0
    6.4685   -0.5349    0.0000 H   0  0  0  0  0  0  0  0  0  0  0  0
    7.2656   -0.5349    0.0000 H   0  0  0  0  0  0  0  0  0  0  0  0
    9.8637    0.9149    0.0000 H   0  0  0  0  0  0  0  0  0  0  0  0
    9.0666    0.9149    0.0000 H   0  0  0  0  0  0  0  0  0  0  0  0
    6.3996    0.9149    0.0000 H   0  0  0  0  0  0  0  0  0  0  0  0
    5.6025    0.9149    0.0000 H   0  0  0  0  0  0  0  0  0  0  0  0
    9.9326   -0.5349    0.0000 H   0  0  0  0  0  0  0  0  0  0  0  0
   10.7297   -0.5349    0.0000 H   0  0  0  0  0  0  0  0  0  0  0  0
    4.7365   -0.5349    0.0000 H   0  0  0  0  0  0  0  0  0  0  0  0
    5.5335   -0.5349    0.0000 H   0  0  0  0  0  0  0  0  0  0  0  0
   11.5957    0.9149    0.0000 H   0  0  0  0  0  0  0  0  0  0  0  0
   10.7987    0.9149    0.0000 H   0  0  0  0  0  0  0  0  0  0  0  0
    4.6675    0.9149    0.0000 H   0  0  0  0  0  0  0  0  0  0  0  0
    3.8705    0.9149    0.0000 H   0  0  0  0  0  0  0  0  0  0  0  0
   12.0632   -0.6800    0.0000 H   0  0  0  0  0  0  0  0  0  0  0  0
   16.8608   -0.5349    0.0000 H   0  0  0  0  0  0  0  0  0  0  0  0
   17.6579   -0.5349    0.0000 H   0  0  0  0  0  0  0  0  0  0  0  0
   18.5239    0.9149    0.0000 H   0  0  0  0  0  0  0  0  0  0  0  0
   17.7269    0.9149    0.0000 H   0  0  0  0  0  0  0  0  0  0  0  0
   16.7919    0.9149    0.0000 H   0  0  0  0  0  0  0  0  0  0  0  0
   15.9948    0.9149    0.0000 H   0  0  0  0  0  0  0  0  0  0  0  0
   18.5929   -0.5349    0.0000 H   0  0  0  0  0  0  0  0  0  0  0  0
   19.3899   -0.5349    0.0000 H   0  0  0  0  0  0  0  0  0  0  0  0
   12.9292    1.0600    0.0000 H   0  0  0  0  0  0  0  0  0  0  0  0
   13.3967   -0.5349    0.0000 H   0  0  0  0  0  0  0  0  0  0  0  0
   14.1938   -0.5349    0.0000 H   0  0  0  0  0  0  0  0  0  0  0  0
   15.5273   -0.6800    0.0000 H   0  0  0  0  0  0  0  0  0  0  0  0
   14.6613    1.0600    0.0000 H   0  0  0  0  0  0  0  0  0  0  0  0
   20.1674   -0.0969    0.0000 H   0  0  0  0  0  0  0  0  0  0  0  0
   20.3944    0.7500    0.0000 H   0  0  0  0  0  0  0  0  0  0  0  0
   19.5474    0.9769    0.0000 H   0  0  0  0  0  0  0  0  0  0  0  0
    2.0000    0.1300    0.0000 H   0  0  0  0  0  0  0  0  0  0  0  0
  1 18  1  0  0  0  0
  1 58  1  0  0  0  0
  2 18  2  0  0  0  0
  3  4  1  0  0  0  0
  3  5  1  0  0  0  0
  3 23  1  0  0  0  0
  3 24  1  0  0  0  0
  4  6  1  0  0  0  0
  4 25  1  0  0  0  0
  4 26  1  0  0  0  0
  5  7  1  0  0  0  0
  5 27  1  0  0  0  0
  5 28  1  0  0  0  0
  6  8  1  0  0  0  0
  6 29  1  0  0  0  0
  6 30  1  0  0  0  0
  7  9  1  0  0  0  0
  7 31  1  0  0  0  0
  7 32  1  0  0  0  0
  8 10  1  0  0  0  0
  8 33  1  0  0  0  0
  8 34  1  0  0  0  0
  9 11  1  0  0  0  0
  9 35  1  0  0  0  0
  9 36  1  0  0  0  0
 10 12  1  0  0  0  0
 10 37  1  0  0  0  0
 10 38  1  0  0  0  0
 11 18  1  0  0  0  0
 11 39  1  0  0  0  0
 11 40  1  0  0  0  0
 12 17  2  0  0  0  0
 12 41  1  0  0  0  0
 13 14  1  0  0  0  0
 13 15  1  0  0  0  0
 13 42  1  0  0  0  0
 13 43  1  0  0  0  0
 14 16  1  0  0  0  0
 14 44  1  0  0  0  0
 14 45  1  0  0  0  0
 15 20  1  0  0  0  0
 15 46  1  0  0  0  0
 15 47  1  0  0  0  0
 16 22  1  0  0  0  0
 16 48  1  0  0  0  0
 16 49  1  0  0  0  0
 17 19  1  0  0  0  0
 17 50  1  0  0  0  0
 19 21  1  0  0  0  0
 19 51  1  0  0  0  0
 19 52  1  0  0  0  0
 20 21  2  0  0  0  0
 20 53  1  0  0  0  0
 21 54  1  0  0  0  0
 22 55  1  0  0  0  0
 22 56  1  0  0  0  0
 22 57  1  0  0  0  0
M  END
> <PUBCHEM_COMPOUND_CID>
5282805

> <PUBCHEM_COMPOUND_CANONICALIZED>
1

> <PUBCHEM_CACTVS_COMPLEXITY>
292

> <PUBCHEM_CACTVS_HBOND_ACCEPTOR>
2

> <PUBCHEM_CACTVS_HBOND_DONOR>
1

> <PUBCHEM_CACTVS_ROTATABLE_BOND>
16

> <PUBCHEM_CACTVS_SUBSKEYS>
AAADcfB4MAAAAAAAAAAAAAAAAAAAAAAAAAAAAAAAAAAAAAAAAAAAGgAACAAACACAgAACCAAAAgCIACDSCAAAAAAgAAAICAEAAAgAABIAAQAAQAAEgAAIAAOIyKCAAAAAAAAAAAAAAAAAAAAAAAAAAAAAAA==

> <PUBCHEM_IUPAC_OPENEYE_NAME>
(11E,14E)-icosa-11,14-dienoic acid

> <PUBCHEM_IUPAC_CAS_NAME>
(11E,14E)-eicosa-11,14-dienoic acid

> <PUBCHEM_IUPAC_NAME_MARKUP>
(11<I>E</I>,14<I>E</I>)-icosa-11,14-dienoic acid

> <PUBCHEM_IUPAC_NAME>
(11E,14E)-icosa-11,14-dienoic acid

> <PUBCHEM_IUPAC_SYSTEMATIC_NAME>
(11E,14E)-icosa-11,14-dienoic acid

> <PUBCHEM_IUPAC_TRADITIONAL_NAME>
(11E,14E)-eicosa-11,14-dienoic acid

> <PUBCHEM_IUPAC_INCHI>
InChI=1S/C20H36O2/c1-2-3-4-5-6-7-8-9-10-11-12-13-14-15-16-17-18-19-20(21)22/h6-7,9-10H,2-5,8,11-19H2,1H3,(H,21,22)/b7-6+,10-9+

> <PUBCHEM_IUPAC_INCHIKEY>
XSXIVVZCUAHUJO-AVQMFFATSA-N

> <PUBCHEM_XLOGP3>
7.9

> <PUBCHEM_EXACT_MASS>
308.271530387

> <PUBCHEM_MOLECULAR_FORMULA>
C20H36O2

> <PUBCHEM_MOLECULAR_WEIGHT>
308.5

> <PUBCHEM_SMILES>
CCCCC/C=C/C/C=C/CCCCCCCCCC(=O)O

> <PUBCHEM_CONNECTIVITY_SMILES>
CCCCCC=CCC=CCCCCCCCCCC(=O)O

> <PUBCHEM_CACTVS_TPSA>
37.3

> <PUBCHEM_MONOISOTOPIC_WEIGHT>
308.271530387

> <PUBCHEM_TOTAL_CHARGE>
0

> <PUBCHEM_HEAVY_ATOM_COUNT>
22

> <PUBCHEM_ATOM_DEF_STEREO_COUNT>
0

> <PUBCHEM_ATOM_UDEF_STEREO_COUNT>
0

> <PUBCHEM_BOND_DEF_STEREO_COUNT>
2

> <PUBCHEM_BOND_UDEF_STEREO_COUNT>
0

> <PUBCHEM_ISOTOPIC_ATOM_COUNT>
0

> <PUBCHEM_COMPONENT_COUNT>
1

> <PUBCHEM_CACTVS_TAUTO_COUNT>
-1

> <PUBCHEM_COORDINATE_TYPE>
1
5
255

$$$$
