5283009
  -OEChem-05122610022D

 54 53  0     1  0  0  0  0  0999 V2000
   13.7953    1.0950    0.0000 O   0  0  0  0  0  0  0  0  0  0  0  0
   11.1972   -1.4050    0.0000 O   0  0  0  0  0  0  0  0  0  0  0  0
    2.5369   -0.4050    0.0000 O   0  0  0  0  0  0  0  0  0  0  0  0
    3.4030    1.0950    0.0000 O   0  0  0  0  0  0  0  0  0  0  0  0
    7.7331   -0.4050    0.0000 C   0  0  0  0  0  0  0  0  0  0  0  0
    6.8671    0.0950    0.0000 C   0  0  0  0  0  0  0  0  0  0  0  0
    8.5991    0.0950    0.0000 C   0  0  0  0  0  0  0  0  0  0  0  0
    6.0010   -0.4050    0.0000 C   0  0  0  0  0  0  0  0  0  0  0  0
    9.4651   -0.4050    0.0000 C   0  0  0  0  0  0  0  0  0  0  0  0
    5.1350    0.0950    0.0000 C   0  0  0  0  0  0  0  0  0  0  0  0
   10.3312    0.0950    0.0000 C   0  0  0  0  0  0  0  0  0  0  0  0
   15.5273    0.0950    0.0000 C   0  0  0  0  0  0  0  0  0  0  0  0
   14.6613   -0.4050    0.0000 C   0  0  0  0  0  0  0  0  0  0  0  0
   16.3933   -0.4050    0.0000 C   0  0  0  0  0  0  0  0  0  0  0  0
   13.7953    0.0950    0.0000 C   0  0  3  0  0  0  0  0  0  0  0  0
    4.2690   -0.4050    0.0000 C   0  0  0  0  0  0  0  0  0  0  0  0
   17.2594    0.0950    0.0000 C   0  0  0  0  0  0  0  0  0  0  0  0
   11.1972   -0.4050    0.0000 C   0  0  0  0  0  0  0  0  0  0  0  0
   12.9292   -0.4050    0.0000 C   0  0  0  0  0  0  0  0  0  0  0  0
   12.0632    0.0950    0.0000 C   0  0  0  0  0  0  0  0  0  0  0  0
   18.1254   -0.4050    0.0000 C   0  0  0  0  0  0  0  0  0  0  0  0
    3.4030    0.0950    0.0000 C   0  0  0  0  0  0  0  0  0  0  0  0
    7.3346   -0.8799    0.0000 H   0  0  0  0  0  0  0  0  0  0  0  0
    8.1316   -0.8799    0.0000 H   0  0  0  0  0  0  0  0  0  0  0  0
    7.2656    0.5699    0.0000 H   0  0  0  0  0  0  0  0  0  0  0  0
    6.4685    0.5699    0.0000 H   0  0  0  0  0  0  0  0  0  0  0  0
    8.9976    0.5699    0.0000 H   0  0  0  0  0  0  0  0  0  0  0  0
    8.2006    0.5699    0.0000 H   0  0  0  0  0  0  0  0  0  0  0  0
    5.6025   -0.8799    0.0000 H   0  0  0  0  0  0  0  0  0  0  0  0
    6.3996   -0.8799    0.0000 H   0  0  0  0  0  0  0  0  0  0  0  0
    9.0666   -0.8799    0.0000 H   0  0  0  0  0  0  0  0  0  0  0  0
    9.8637   -0.8799    0.0000 H   0  0  0  0  0  0  0  0  0  0  0  0
    5.5335    0.5699    0.0000 H   0  0  0  0  0  0  0  0  0  0  0  0
    4.7365    0.5699    0.0000 H   0  0  0  0  0  0  0  0  0  0  0  0
   10.7297    0.5699    0.0000 H   0  0  0  0  0  0  0  0  0  0  0  0
    9.9326    0.5699    0.0000 H   0  0  0  0  0  0  0  0  0  0  0  0
   15.9258    0.5699    0.0000 H   0  0  0  0  0  0  0  0  0  0  0  0
   15.1288    0.5699    0.0000 H   0  0  0  0  0  0  0  0  0  0  0  0
   14.2628   -0.8799    0.0000 H   0  0  0  0  0  0  0  0  0  0  0  0
   15.0598   -0.8799    0.0000 H   0  0  0  0  0  0  0  0  0  0  0  0
   15.9948   -0.8799    0.0000 H   0  0  0  0  0  0  0  0  0  0  0  0
   16.7919   -0.8799    0.0000 H   0  0  0  0  0  0  0  0  0  0  0  0
   14.3322    0.4050    0.0000 H   0  0  0  0  0  0  0  0  0  0  0  0
    3.8705   -0.8799    0.0000 H   0  0  0  0  0  0  0  0  0  0  0  0
    4.6675   -0.8799    0.0000 H   0  0  0  0  0  0  0  0  0  0  0  0
   17.6579    0.5699    0.0000 H   0  0  0  0  0  0  0  0  0  0  0  0
   16.8608    0.5699    0.0000 H   0  0  0  0  0  0  0  0  0  0  0  0
   12.9292   -1.0250    0.0000 H   0  0  0  0  0  0  0  0  0  0  0  0
   12.0632    0.7150    0.0000 H   0  0  0  0  0  0  0  0  0  0  0  0
   17.8154   -0.9419    0.0000 H   0  0  0  0  0  0  0  0  0  0  0  0
   18.6623   -0.7150    0.0000 H   0  0  0  0  0  0  0  0  0  0  0  0
   18.4354    0.1319    0.0000 H   0  0  0  0  0  0  0  0  0  0  0  0
   14.3322    1.4050    0.0000 H   0  0  0  0  0  0  0  0  0  0  0  0
    2.0000   -0.0950    0.0000 H   0  0  0  0  0  0  0  0  0  0  0  0
  1 15  1  0  0  0  0
  1 53  1  0  0  0  0
  2 18  2  0  0  0  0
  3 22  1  0  0  0  0
  3 54  1  0  0  0  0
  4 22  2  0  0  0  0
  5  6  1  0  0  0  0
  5  7  1  0  0  0  0
  5 23  1  0  0  0  0
  5 24  1  0  0  0  0
  6  8  1  0  0  0  0
  6 25  1  0  0  0  0
  6 26  1  0  0  0  0
  7  9  1  0  0  0  0
  7 27  1  0  0  0  0
  7 28  1  0  0  0  0
  8 10  1  0  0  0  0
  8 29  1  0  0  0  0
  8 30  1  0  0  0  0
  9 11  1  0  0  0  0
  9 31  1  0  0  0  0
  9 32  1  0  0  0  0
 10 16  1  0  0  0  0
 10 33  1  0  0  0  0
 10 34  1  0  0  0  0
 11 18  1  0  0  0  0
 11 35  1  0  0  0  0
 11 36  1  0  0  0  0
 12 13  1  0  0  0  0
 12 14  1  0  0  0  0
 12 37  1  0  0  0  0
 12 38  1  0  0  0  0
 13 15  1  0  0  0  0
 13 39  1  0  0  0  0
 13 40  1  0  0  0  0
 14 17  1  0  0  0  0
 14 41  1  0  0  0  0
 14 42  1  0  0  0  0
 15 19  1  0  0  0  0
 15 43  1  0  0  0  0
 16 22  1  0  0  0  0
 16 44  1  0  0  0  0
 16 45  1  0  0  0  0
 17 21  1  0  0  0  0
 17 46  1  0  0  0  0
 17 47  1  0  0  0  0
 18 20  1  0  0  0  0
 19 20  2  0  0  0  0
 19 48  1  0  0  0  0
 20 49  1  0  0  0  0
 21 50  1  0  0  0  0
 21 51  1  0  0  0  0
 21 52  1  0  0  0  0
M  END
> <PUBCHEM_COMPOUND_CID>
5283009

> <PUBCHEM_COMPOUND_CANONICALIZED>
1

> <PUBCHEM_CACTVS_COMPLEXITY>
323

> <PUBCHEM_CACTVS_HBOND_ACCEPTOR>
4

> <PUBCHEM_CACTVS_HBOND_DONOR>
2

> <PUBCHEM_CACTVS_ROTATABLE_BOND>
15

> <PUBCHEM_CACTVS_SUBSKEYS>
AAADcfB4OAAAAAAAAAAAAAAAAAAAAAAAAAAAAAAAAAAAAAAAAAAAGgAACAAACBSggAICCAAAAgCIAKDSCAAAAAAgAAAICAEAAEgAFBIAAQAAUAAEgAAIEYOIyKCAAAAAAAAAAAAAAAAAAAAAAAAAAAAAAA==

> <PUBCHEM_IUPAC_OPENEYE_NAME>
(E)-13-hydroxy-10-oxo-octadec-11-enoic acid

> <PUBCHEM_IUPAC_CAS_NAME>
(E)-13-hydroxy-10-oxo-11-octadecenoic acid

> <PUBCHEM_IUPAC_NAME_MARKUP>
(<I>E</I>)-13-hydroxy-10-oxooctadec-11-enoic acid

> <PUBCHEM_IUPAC_NAME>
(E)-13-hydroxy-10-oxooctadec-11-enoic acid

> <PUBCHEM_IUPAC_SYSTEMATIC_NAME>
(E)-13-oxidanyl-10-oxidanylidene-octadec-11-enoic acid

> <PUBCHEM_IUPAC_TRADITIONAL_NAME>
(E)-13-hydroxy-10-keto-octadec-11-enoic acid

> <PUBCHEM_IUPAC_INCHI>
InChI=1S/C18H32O4/c1-2-3-8-11-16(19)14-15-17(20)12-9-6-4-5-7-10-13-18(21)22/h14-16,19H,2-13H2,1H3,(H,21,22)/b15-14+

> <PUBCHEM_IUPAC_INCHIKEY>
CZGIUGHMJZYXNX-CCEZHUSRSA-N

> <PUBCHEM_XLOGP3_AA>
4.2

> <PUBCHEM_EXACT_MASS>
312.23005950

> <PUBCHEM_MOLECULAR_FORMULA>
C18H32O4

> <PUBCHEM_MOLECULAR_WEIGHT>
312.4

> <PUBCHEM_SMILES>
CCCCCC(/C=C/C(=O)CCCCCCCCC(=O)O)O

> <PUBCHEM_CONNECTIVITY_SMILES>
CCCCCC(C=CC(=O)CCCCCCCCC(=O)O)O

> <PUBCHEM_CACTVS_TPSA>
74.6

> <PUBCHEM_MONOISOTOPIC_WEIGHT>
312.23005950

> <PUBCHEM_TOTAL_CHARGE>
0

> <PUBCHEM_HEAVY_ATOM_COUNT>
22

> <PUBCHEM_ATOM_DEF_STEREO_COUNT>
0

> <PUBCHEM_ATOM_UDEF_STEREO_COUNT>
1

> <PUBCHEM_BOND_DEF_STEREO_COUNT>
1

> <PUBCHEM_BOND_UDEF_STEREO_COUNT>
0

> <PUBCHEM_ISOTOPIC_ATOM_COUNT>
0

> <PUBCHEM_COMPONENT_COUNT>
1

> <PUBCHEM_CACTVS_TAUTO_COUNT>
-1

> <PUBCHEM_COORDINATE_TYPE>
1
5
255

> <PUBCHEM_BONDANNOTATIONS>
15  1  3

$$$$
