5283566
  -OEChem-05122609592D

117116  0     1  0  0  0  0  0999 V2000
   21.0526    1.6550    0.0000 O   0  0  0  0  0  0  0  0  0  0  0  0
   18.4545   -0.8450    0.0000 O   0  0  0  0  0  0  0  0  0  0  0  0
   19.3205   -1.3450    0.0000 O   0  0  0  0  0  0  0  0  0  0  0  0
   19.3205    0.6550    0.0000 N   0  0  0  0  0  0  0  0  0  0  0  0
   10.6603    0.6550    0.0000 C   0  0  0  0  0  0  0  0  0  0  0  0
    9.7942    0.1550    0.0000 C   0  0  0  0  0  0  0  0  0  0  0  0
   11.5263    0.1550    0.0000 C   0  0  0  0  0  0  0  0  0  0  0  0
    8.9282    0.6550    0.0000 C   0  0  0  0  0  0  0  0  0  0  0  0
   12.3923    0.6550    0.0000 C   0  0  0  0  0  0  0  0  0  0  0  0
    8.0622    0.1550    0.0000 C   0  0  0  0  0  0  0  0  0  0  0  0
   13.2583    0.1550    0.0000 C   0  0  0  0  0  0  0  0  0  0  0  0
    7.1962    0.6550    0.0000 C   0  0  0  0  0  0  0  0  0  0  0  0
   14.1244    0.6550    0.0000 C   0  0  0  0  0  0  0  0  0  0  0  0
    6.3301    0.1550    0.0000 C   0  0  0  0  0  0  0  0  0  0  0  0
   14.9904    0.1550    0.0000 C   0  0  0  0  0  0  0  0  0  0  0  0
    5.4641    0.6550    0.0000 C   0  0  0  0  0  0  0  0  0  0  0  0
   15.8564    0.6550    0.0000 C   0  0  0  0  0  0  0  0  0  0  0  0
   27.9808    0.6550    0.0000 C   0  0  0  0  0  0  0  0  0  0  0  0
   28.8468    0.1550    0.0000 C   0  0  0  0  0  0  0  0  0  0  0  0
   27.1147    0.1550    0.0000 C   0  0  0  0  0  0  0  0  0  0  0  0
   29.7128    0.6550    0.0000 C   0  0  0  0  0  0  0  0  0  0  0  0
   26.2487    0.6550    0.0000 C   0  0  0  0  0  0  0  0  0  0  0  0
    4.5981    0.1550    0.0000 C   0  0  0  0  0  0  0  0  0  0  0  0
   16.7224    0.1550    0.0000 C   0  0  0  0  0  0  0  0  0  0  0  0
   30.5788    0.1550    0.0000 C   0  0  0  0  0  0  0  0  0  0  0  0
   25.3827    0.1550    0.0000 C   0  0  0  0  0  0  0  0  0  0  0  0
   31.4449    0.6550    0.0000 C   0  0  0  0  0  0  0  0  0  0  0  0
   24.5167    0.6550    0.0000 C   0  0  0  0  0  0  0  0  0  0  0  0
    3.7320    0.6550    0.0000 C   0  0  0  0  0  0  0  0  0  0  0  0
   17.5885    0.6550    0.0000 C   0  0  0  0  0  0  0  0  0  0  0  0
   32.3109    0.1550    0.0000 C   0  0  0  0  0  0  0  0  0  0  0  0
   23.6506    0.1550    0.0000 C   0  0  0  0  0  0  0  0  0  0  0  0
   20.1865    0.1550    0.0000 C   0  0  2  0  0  0  0  0  0  0  0  0
    2.8660    0.1550    0.0000 C   0  0  0  0  0  0  0  0  0  0  0  0
   21.0526    0.6550    0.0000 C   0  0  1  0  0  0  0  0  0  0  0  0
   18.4545    0.1550    0.0000 C   0  0  0  0  0  0  0  0  0  0  0  0
   33.1769    0.6550    0.0000 C   0  0  0  0  0  0  0  0  0  0  0  0
   22.7846    0.6550    0.0000 C   0  0  0  0  0  0  0  0  0  0  0  0
   21.9186    0.1550    0.0000 C   0  0  0  0  0  0  0  0  0  0  0  0
   20.1865   -0.8450    0.0000 C   0  0  0  0  0  0  0  0  0  0  0  0
    2.0000    0.6550    0.0000 C   0  0  0  0  0  0  0  0  0  0  0  0
   34.0429    0.1550    0.0000 C   0  0  0  0  0  0  0  0  0  0  0  0
   11.0588    1.1300    0.0000 H   0  0  0  0  0  0  0  0  0  0  0  0
   10.2617    1.1300    0.0000 H   0  0  0  0  0  0  0  0  0  0  0  0
    9.3957   -0.3199    0.0000 H   0  0  0  0  0  0  0  0  0  0  0  0
   10.1928   -0.3199    0.0000 H   0  0  0  0  0  0  0  0  0  0  0  0
   11.1278   -0.3199    0.0000 H   0  0  0  0  0  0  0  0  0  0  0  0
   11.9248   -0.3199    0.0000 H   0  0  0  0  0  0  0  0  0  0  0  0
    9.3267    1.1300    0.0000 H   0  0  0  0  0  0  0  0  0  0  0  0
    8.5297    1.1300    0.0000 H   0  0  0  0  0  0  0  0  0  0  0  0
   12.7908    1.1300    0.0000 H   0  0  0  0  0  0  0  0  0  0  0  0
   11.9938    1.1300    0.0000 H   0  0  0  0  0  0  0  0  0  0  0  0
    7.6636   -0.3199    0.0000 H   0  0  0  0  0  0  0  0  0  0  0  0
    8.4607   -0.3199    0.0000 H   0  0  0  0  0  0  0  0  0  0  0  0
   12.8598   -0.3199    0.0000 H   0  0  0  0  0  0  0  0  0  0  0  0
   13.6569   -0.3199    0.0000 H   0  0  0  0  0  0  0  0  0  0  0  0
    7.5947    1.1300    0.0000 H   0  0  0  0  0  0  0  0  0  0  0  0
    6.7976    1.1300    0.0000 H   0  0  0  0  0  0  0  0  0  0  0  0
   14.5229    1.1300    0.0000 H   0  0  0  0  0  0  0  0  0  0  0  0
   13.7258    1.1300    0.0000 H   0  0  0  0  0  0  0  0  0  0  0  0
    5.9316   -0.3199    0.0000 H   0  0  0  0  0  0  0  0  0  0  0  0
    6.7287   -0.3199    0.0000 H   0  0  0  0  0  0  0  0  0  0  0  0
   14.5919   -0.3199    0.0000 H   0  0  0  0  0  0  0  0  0  0  0  0
   15.3889   -0.3199    0.0000 H   0  0  0  0  0  0  0  0  0  0  0  0
    5.8626    1.1300    0.0000 H   0  0  0  0  0  0  0  0  0  0  0  0
    5.0656    1.1300    0.0000 H   0  0  0  0  0  0  0  0  0  0  0  0
   16.2549    1.1300    0.0000 H   0  0  0  0  0  0  0  0  0  0  0  0
   15.4579    1.1300    0.0000 H   0  0  0  0  0  0  0  0  0  0  0  0
   28.3793    1.1300    0.0000 H   0  0  0  0  0  0  0  0  0  0  0  0
   27.5822    1.1300    0.0000 H   0  0  0  0  0  0  0  0  0  0  0  0
   28.4483   -0.3199    0.0000 H   0  0  0  0  0  0  0  0  0  0  0  0
   29.2453   -0.3199    0.0000 H   0  0  0  0  0  0  0  0  0  0  0  0
   26.7162   -0.3199    0.0000 H   0  0  0  0  0  0  0  0  0  0  0  0
   27.5133   -0.3199    0.0000 H   0  0  0  0  0  0  0  0  0  0  0  0
   30.1113    1.1300    0.0000 H   0  0  0  0  0  0  0  0  0  0  0  0
   29.3143    1.1300    0.0000 H   0  0  0  0  0  0  0  0  0  0  0  0
   26.6472    1.1300    0.0000 H   0  0  0  0  0  0  0  0  0  0  0  0
   25.8502    1.1300    0.0000 H   0  0  0  0  0  0  0  0  0  0  0  0
    4.1996   -0.3199    0.0000 H   0  0  0  0  0  0  0  0  0  0  0  0
    4.9966   -0.3199    0.0000 H   0  0  0  0  0  0  0  0  0  0  0  0
   16.3239   -0.3199    0.0000 H   0  0  0  0  0  0  0  0  0  0  0  0
   17.1210   -0.3199    0.0000 H   0  0  0  0  0  0  0  0  0  0  0  0
   30.1803   -0.3199    0.0000 H   0  0  0  0  0  0  0  0  0  0  0  0
   30.9774   -0.3199    0.0000 H   0  0  0  0  0  0  0  0  0  0  0  0
   24.9842   -0.3199    0.0000 H   0  0  0  0  0  0  0  0  0  0  0  0
   25.7812   -0.3199    0.0000 H   0  0  0  0  0  0  0  0  0  0  0  0
   31.8434    1.1300    0.0000 H   0  0  0  0  0  0  0  0  0  0  0  0
   31.0463    1.1300    0.0000 H   0  0  0  0  0  0  0  0  0  0  0  0
   24.9152    1.1300    0.0000 H   0  0  0  0  0  0  0  0  0  0  0  0
   24.1181    1.1300    0.0000 H   0  0  0  0  0  0  0  0  0  0  0  0
    4.1306    1.1300    0.0000 H   0  0  0  0  0  0  0  0  0  0  0  0
    3.3335    1.1300    0.0000 H   0  0  0  0  0  0  0  0  0  0  0  0
   17.9870    1.1300    0.0000 H   0  0  0  0  0  0  0  0  0  0  0  0
   17.1899    1.1300    0.0000 H   0  0  0  0  0  0  0  0  0  0  0  0
   31.9124   -0.3199    0.0000 H   0  0  0  0  0  0  0  0  0  0  0  0
   32.7094   -0.3199    0.0000 H   0  0  0  0  0  0  0  0  0  0  0  0
   23.2521   -0.3199    0.0000 H   0  0  0  0  0  0  0  0  0  0  0  0
   24.0492   -0.3199    0.0000 H   0  0  0  0  0  0  0  0  0  0  0  0
   19.6496   -0.1550    0.0000 H   0  0  0  0  0  0  0  0  0  0  0  0
    2.4675   -0.3199    0.0000 H   0  0  0  0  0  0  0  0  0  0  0  0
    3.2646   -0.3199    0.0000 H   0  0  0  0  0  0  0  0  0  0  0  0
   20.5156    0.9650    0.0000 H   0  0  0  0  0  0  0  0  0  0  0  0
   33.5754    1.1300    0.0000 H   0  0  0  0  0  0  0  0  0  0  0  0
   32.7784    1.1300    0.0000 H   0  0  0  0  0  0  0  0  0  0  0  0
   19.3205    1.2750    0.0000 H   0  0  0  0  0  0  0  0  0  0  0  0
   22.7846    1.2750    0.0000 H   0  0  0  0  0  0  0  0  0  0  0  0
   21.9186   -0.4650    0.0000 H   0  0  0  0  0  0  0  0  0  0  0  0
   20.3986   -1.4276    0.0000 H   0  0  0  0  0  0  0  0  0  0  0  0
   20.7971   -0.7373    0.0000 H   0  0  0  0  0  0  0  0  0  0  0  0
    2.3100    1.1919    0.0000 H   0  0  0  0  0  0  0  0  0  0  0  0
    1.4631    0.9650    0.0000 H   0  0  0  0  0  0  0  0  0  0  0  0
    1.6900    0.1181    0.0000 H   0  0  0  0  0  0  0  0  0  0  0  0
   33.7329   -0.3819    0.0000 H   0  0  0  0  0  0  0  0  0  0  0  0
   34.5799   -0.1550    0.0000 H   0  0  0  0  0  0  0  0  0  0  0  0
   34.3529    0.6919    0.0000 H   0  0  0  0  0  0  0  0  0  0  0  0
   21.5895    1.9650    0.0000 H   0  0  0  0  0  0  0  0  0  0  0  0
   19.3205   -1.9650    0.0000 H   0  0  0  0  0  0  0  0  0  0  0  0
 35  1  1  6  0  0  0
  1116  1  0  0  0  0
  2 36  2  0  0  0  0
  3 40  1  0  0  0  0
  3117  1  0  0  0  0
 33  4  1  6  0  0  0
  4 36  1  0  0  0  0
  4105  1  0  0  0  0
  5  6  1  0  0  0  0
  5  7  1  0  0  0  0
  5 43  1  0  0  0  0
  5 44  1  0  0  0  0
  6  8  1  0  0  0  0
  6 45  1  0  0  0  0
  6 46  1  0  0  0  0
  7  9  1  0  0  0  0
  7 47  1  0  0  0  0
  7 48  1  0  0  0  0
  8 10  1  0  0  0  0
  8 49  1  0  0  0  0
  8 50  1  0  0  0  0
  9 11  1  0  0  0  0
  9 51  1  0  0  0  0
  9 52  1  0  0  0  0
 10 12  1  0  0  0  0
 10 53  1  0  0  0  0
 10 54  1  0  0  0  0
 11 13  1  0  0  0  0
 11 55  1  0  0  0  0
 11 56  1  0  0  0  0
 12 14  1  0  0  0  0
 12 57  1  0  0  0  0
 12 58  1  0  0  0  0
 13 15  1  0  0  0  0
 13 59  1  0  0  0  0
 13 60  1  0  0  0  0
 14 16  1  0  0  0  0
 14 61  1  0  0  0  0
 14 62  1  0  0  0  0
 15 17  1  0  0  0  0
 15 63  1  0  0  0  0
 15 64  1  0  0  0  0
 16 23  1  0  0  0  0
 16 65  1  0  0  0  0
 16 66  1  0  0  0  0
 17 24  1  0  0  0  0
 17 67  1  0  0  0  0
 17 68  1  0  0  0  0
 18 19  1  0  0  0  0
 18 20  1  0  0  0  0
 18 69  1  0  0  0  0
 18 70  1  0  0  0  0
 19 21  1  0  0  0  0
 19 71  1  0  0  0  0
 19 72  1  0  0  0  0
 20 22  1  0  0  0  0
 20 73  1  0  0  0  0
 20 74  1  0  0  0  0
 21 25  1  0  0  0  0
 21 75  1  0  0  0  0
 21 76  1  0  0  0  0
 22 26  1  0  0  0  0
 22 77  1  0  0  0  0
 22 78  1  0  0  0  0
 23 29  1  0  0  0  0
 23 79  1  0  0  0  0
 23 80  1  0  0  0  0
 24 30  1  0  0  0  0
 24 81  1  0  0  0  0
 24 82  1  0  0  0  0
 25 27  1  0  0  0  0
 25 83  1  0  0  0  0
 25 84  1  0  0  0  0
 26 28  1  0  0  0  0
 26 85  1  0  0  0  0
 26 86  1  0  0  0  0
 27 31  1  0  0  0  0
 27 87  1  0  0  0  0
 27 88  1  0  0  0  0
 28 32  1  0  0  0  0
 28 89  1  0  0  0  0
 28 90  1  0  0  0  0
 29 34  1  0  0  0  0
 29 91  1  0  0  0  0
 29 92  1  0  0  0  0
 30 36  1  0  0  0  0
 30 93  1  0  0  0  0
 30 94  1  0  0  0  0
 31 37  1  0  0  0  0
 31 95  1  0  0  0  0
 31 96  1  0  0  0  0
 32 38  1  0  0  0  0
 32 97  1  0  0  0  0
 32 98  1  0  0  0  0
 33 35  1  0  0  0  0
 33 40  1  0  0  0  0
 33 99  1  0  0  0  0
 34 41  1  0  0  0  0
 34100  1  0  0  0  0
 34101  1  0  0  0  0
 35 39  1  0  0  0  0
 35102  1  0  0  0  0
 37 42  1  0  0  0  0
 37103  1  0  0  0  0
 37104  1  0  0  0  0
 38 39  2  0  0  0  0
 38106  1  0  0  0  0
 39107  1  0  0  0  0
 40108  1  0  0  0  0
 40109  1  0  0  0  0
 41110  1  0  0  0  0
 41111  1  0  0  0  0
 41112  1  0  0  0  0
 42113  1  0  0  0  0
 42114  1  0  0  0  0
 42115  1  0  0  0  0
M  END
> <PUBCHEM_COMPOUND_CID>
5283566

> <PUBCHEM_COMPOUND_CANONICALIZED>
1

> <PUBCHEM_CACTVS_COMPLEXITY>
565

> <PUBCHEM_CACTVS_HBOND_ACCEPTOR>
3

> <PUBCHEM_CACTVS_HBOND_DONOR>
3

> <PUBCHEM_CACTVS_ROTATABLE_BOND>
34

> <PUBCHEM_CACTVS_SUBSKEYS>
AAADcfB+MAAAAAAAAAAAAAAAAAAAAAAAAAAAAAAAAAAAAAAAAAAAHgAQCAAACDzhgAYCAALAAgCIACFSEAAAAAAgAAAICIEIAAgCFBIAgQAEUAAFlgCYEAMYiICAAAAAAAAAAAAAAAAAAAAAAAAAAAAAAA==

> <PUBCHEM_IUPAC_OPENEYE_NAME>
N-[(E,1S,2R)-2-hydroxy-1-(hydroxymethyl)heptadec-3-enyl]icosanamide

> <PUBCHEM_IUPAC_CAS_NAME>
N-[(E,2S,3R)-1,3-dihydroxyoctadec-4-en-2-yl]eicosanamide

> <PUBCHEM_IUPAC_NAME_MARKUP>
<I>N</I>-[(<I>E</I>,2<I>S</I>,3<I>R</I>)-1,3-dihydroxyoctadec-4-en-2-yl]icosanamide

> <PUBCHEM_IUPAC_NAME>
N-[(E,2S,3R)-1,3-dihydroxyoctadec-4-en-2-yl]icosanamide

> <PUBCHEM_IUPAC_SYSTEMATIC_NAME>
N-[(E,2S,3R)-1,3-bis(oxidanyl)octadec-4-en-2-yl]icosanamide

> <PUBCHEM_IUPAC_TRADITIONAL_NAME>
N-[(E,1S,2R)-2-hydroxy-1-methylol-heptadec-3-enyl]arachidamide

> <PUBCHEM_IUPAC_INCHI>
InChI=1S/C38H75NO3/c1-3-5-7-9-11-13-15-17-18-19-20-22-24-26-28-30-32-34-38(42)39-36(35-40)37(41)33-31-29-27-25-23-21-16-14-12-10-8-6-4-2/h31,33,36-37,40-41H,3-30,32,34-35H2,1-2H3,(H,39,42)/b33-31+/t36-,37+/m0/s1

> <PUBCHEM_IUPAC_INCHIKEY>
XWBWIAOWSABHFI-NUKVNZTCSA-N

> <PUBCHEM_XLOGP3_AA>
15

> <PUBCHEM_EXACT_MASS>
593.57469525

> <PUBCHEM_MOLECULAR_FORMULA>
C38H75NO3

> <PUBCHEM_MOLECULAR_WEIGHT>
594.0

> <PUBCHEM_SMILES>
CCCCCCCCCCCCCCCCCCCC(=O)N[C@@H](CO)[C@@H](/C=C/CCCCCCCCCCCCC)O

> <PUBCHEM_CONNECTIVITY_SMILES>
CCCCCCCCCCCCCCCCCCCC(=O)NC(CO)C(C=CCCCCCCCCCCCCC)O

> <PUBCHEM_CACTVS_TPSA>
69.6

> <PUBCHEM_MONOISOTOPIC_WEIGHT>
593.57469525

> <PUBCHEM_TOTAL_CHARGE>
0

> <PUBCHEM_HEAVY_ATOM_COUNT>
42

> <PUBCHEM_ATOM_DEF_STEREO_COUNT>
2

> <PUBCHEM_ATOM_UDEF_STEREO_COUNT>
0

> <PUBCHEM_BOND_DEF_STEREO_COUNT>
1

> <PUBCHEM_BOND_UDEF_STEREO_COUNT>
0

> <PUBCHEM_ISOTOPIC_ATOM_COUNT>
0

> <PUBCHEM_COMPONENT_COUNT>
1

> <PUBCHEM_CACTVS_TAUTO_COUNT>
-1

> <PUBCHEM_COORDINATE_TYPE>
1
5
255

> <PUBCHEM_BONDANNOTATIONS>
35  1  6
33  4  6

$$$$
