5284349
  -OEChem-01092608262D

 79 82  0     0  0  0  0  0  0999 V2000
   12.0632    4.2963    0.0000 S   0  0  0  0  0  0  0  0  0  0  0  0
   17.3254    4.3204    0.0000 S   0  0  0  0  0  0  0  0  0  0  0  0
   18.1856    5.8237    0.0000 Na  0  3  0  0  0  0  0  0  0  0  0  0
   11.1972    5.7963    0.0000 Na  0  3  0  0  0  0  0  0  0  0  0  0
   15.5437    1.2617    0.0000 O   0  0  0  0  0  0  0  0  0  0  0  0
   11.1972    4.7963    0.0000 O   0  5  0  0  0  0  0  0  0  0  0  0
   12.5632    5.1623    0.0000 O   0  0  0  0  0  0  0  0  0  0  0  0
   11.5632    3.4302    0.0000 O   0  0  0  0  0  0  0  0  0  0  0  0
   18.1895    4.8238    0.0000 O   0  5  0  0  0  0  0  0  0  0  0  0
   16.8221    5.1845    0.0000 O   0  0  0  0  0  0  0  0  0  0  0  0
   17.8287    3.4563    0.0000 O   0  0  0  0  0  0  0  0  0  0  0  0
   13.7953    1.2963    0.0000 N   0  0  0  0  0  0  0  0  0  0  0  0
   12.0632    2.2963    0.0000 N   0  0  0  0  0  0  0  0  0  0  0  0
   17.3254    2.2721    0.0000 N   0  0  0  0  0  0  0  0  0  0  0  0
   12.0632    1.2963    0.0000 N   0  0  0  0  0  0  0  0  0  0  0  0
   17.3215    1.2721    0.0000 N   0  0  0  0  0  0  0  0  0  0  0  0
    6.0010   -2.2037    0.0000 N   0  0  0  0  0  0  0  0  0  0  0  0
    6.0010   -3.2037    0.0000 N   0  0  0  0  0  0  0  0  0  0  0  0
    6.0010   -5.2037    0.0000 N   0  0  0  0  0  0  0  0  0  0  0  0
    2.5369   -5.2037    0.0000 N   0  0  0  0  0  0  0  0  0  0  0  0
   14.6613    2.7963    0.0000 C   0  0  0  0  0  0  0  0  0  0  0  0
   14.6613    3.7963    0.0000 C   0  0  0  0  0  0  0  0  0  0  0  0
   13.7953    2.2963    0.0000 C   0  0  0  0  0  0  0  0  0  0  0  0
   12.9292    3.7963    0.0000 C   0  0  0  0  0  0  0  0  0  0  0  0
   13.7953    4.2963    0.0000 C   0  0  0  0  0  0  0  0  0  0  0  0
   15.5552    2.2616    0.0000 C   0  0  0  0  0  0  0  0  0  0  0  0
   15.5552    4.3309    0.0000 C   0  0  0  0  0  0  0  0  0  0  0  0
   12.9292    2.7963    0.0000 C   0  0  0  0  0  0  0  0  0  0  0  0
   16.4613    3.8171    0.0000 C   0  0  0  0  0  0  0  0  0  0  0  0
   16.4613    2.7755    0.0000 C   0  0  0  0  0  0  0  0  0  0  0  0
   11.1972    0.7963    0.0000 C   0  0  0  0  0  0  0  0  0  0  0  0
    9.4651   -0.2037    0.0000 C   0  0  0  0  0  0  0  0  0  0  0  0
    8.5991   -0.7037    0.0000 C   0  0  0  0  0  0  0  0  0  0  0  0
   10.3312    1.2963    0.0000 C   0  0  0  0  0  0  0  0  0  0  0  0
   11.1972   -0.2037    0.0000 C   0  0  0  0  0  0  0  0  0  0  0  0
    9.4651    0.7963    0.0000 C   0  0  0  0  0  0  0  0  0  0  0  0
   10.3312   -0.7037    0.0000 C   0  0  0  0  0  0  0  0  0  0  0  0
    8.5991   -1.7037    0.0000 C   0  0  0  0  0  0  0  0  0  0  0  0
    7.7331   -0.2037    0.0000 C   0  0  0  0  0  0  0  0  0  0  0  0
   18.1856    0.7688    0.0000 C   0  0  0  0  0  0  0  0  0  0  0  0
    7.7331   -2.2037    0.0000 C   0  0  0  0  0  0  0  0  0  0  0  0
    6.8671   -0.7037    0.0000 C   0  0  0  0  0  0  0  0  0  0  0  0
    6.8671   -1.7037    0.0000 C   0  0  0  0  0  0  0  0  0  0  0  0
   18.1818   -0.2312    0.0000 C   0  0  0  0  0  0  0  0  0  0  0  0
   19.0536    1.2654    0.0000 C   0  0  0  0  0  0  0  0  0  0  0  0
   19.0459   -0.7345    0.0000 C   0  0  0  0  0  0  0  0  0  0  0  0
   19.9177    0.7621    0.0000 C   0  0  0  0  0  0  0  0  0  0  0  0
    5.1350   -3.7037    0.0000 C   0  0  0  0  0  0  0  0  0  0  0  0
   19.9138   -0.2379    0.0000 C   0  0  0  0  0  0  0  0  0  0  0  0
    5.1350   -4.7037    0.0000 C   0  0  0  0  0  0  0  0  0  0  0  0
    4.2690   -3.2037    0.0000 C   0  0  0  0  0  0  0  0  0  0  0  0
    4.2690   -5.2037    0.0000 C   0  0  0  0  0  0  0  0  0  0  0  0
    3.4030   -4.7037    0.0000 C   0  0  0  0  0  0  0  0  0  0  0  0
    3.4030   -3.7037    0.0000 C   0  0  0  0  0  0  0  0  0  0  0  0
   13.7953    4.9163    0.0000 H   0  0  0  0  0  0  0  0  0  0  0  0
   15.5481    4.9509    0.0000 H   0  0  0  0  0  0  0  0  0  0  0  0
   13.2583    0.9863    0.0000 H   0  0  0  0  0  0  0  0  0  0  0  0
   14.3322    0.9863    0.0000 H   0  0  0  0  0  0  0  0  0  0  0  0
   16.0770    0.9455    0.0000 H   0  0  0  0  0  0  0  0  0  0  0  0
   10.3312    1.9163    0.0000 H   0  0  0  0  0  0  0  0  0  0  0  0
   11.7341   -0.5137    0.0000 H   0  0  0  0  0  0  0  0  0  0  0  0
    8.9282    1.1063    0.0000 H   0  0  0  0  0  0  0  0  0  0  0  0
   10.3312   -1.3237    0.0000 H   0  0  0  0  0  0  0  0  0  0  0  0
    9.1361   -2.0137    0.0000 H   0  0  0  0  0  0  0  0  0  0  0  0
    7.7331    0.4163    0.0000 H   0  0  0  0  0  0  0  0  0  0  0  0
    7.7331   -2.8237    0.0000 H   0  0  0  0  0  0  0  0  0  0  0  0
    6.3301   -0.3937    0.0000 H   0  0  0  0  0  0  0  0  0  0  0  0
   17.6436   -0.5391    0.0000 H   0  0  0  0  0  0  0  0  0  0  0  0
   19.0560    1.8854    0.0000 H   0  0  0  0  0  0  0  0  0  0  0  0
   19.0435   -1.3545    0.0000 H   0  0  0  0  0  0  0  0  0  0  0  0
   20.4558    1.0700    0.0000 H   0  0  0  0  0  0  0  0  0  0  0  0
   20.4495   -0.5500    0.0000 H   0  0  0  0  0  0  0  0  0  0  0  0
    4.2690   -2.5837    0.0000 H   0  0  0  0  0  0  0  0  0  0  0  0
    4.2690   -5.8237    0.0000 H   0  0  0  0  0  0  0  0  0  0  0  0
    2.8660   -3.3937    0.0000 H   0  0  0  0  0  0  0  0  0  0  0  0
    6.0010   -5.8237    0.0000 H   0  0  0  0  0  0  0  0  0  0  0  0
    6.5380   -4.8937    0.0000 H   0  0  0  0  0  0  0  0  0  0  0  0
    2.0000   -4.8937    0.0000 H   0  0  0  0  0  0  0  0  0  0  0  0
    2.5369   -5.8237    0.0000 H   0  0  0  0  0  0  0  0  0  0  0  0
  1  6  1  0  0  0  0
  1  7  2  0  0  0  0
  1  8  2  0  0  0  0
  1 24  1  0  0  0  0
  2  9  1  0  0  0  0
  2 10  2  0  0  0  0
  2 11  2  0  0  0  0
  2 29  1  0  0  0  0
  5 26  1  0  0  0  0
  5 59  1  0  0  0  0
 12 23  1  0  0  0  0
 12 57  1  0  0  0  0
 12 58  1  0  0  0  0
 13 15  2  0  0  0  0
 13 28  1  0  0  0  0
 14 16  2  0  0  0  0
 14 30  1  0  0  0  0
 15 31  1  0  0  0  0
 16 40  1  0  0  0  0
 17 18  2  0  0  0  0
 17 43  1  0  0  0  0
 18 48  1  0  0  0  0
 19 50  1  0  0  0  0
 19 76  1  0  0  0  0
 19 77  1  0  0  0  0
 20 53  1  0  0  0  0
 20 78  1  0  0  0  0
 20 79  1  0  0  0  0
 21 22  1  0  0  0  0
 21 23  2  0  0  0  0
 21 26  1  0  0  0  0
 22 25  2  0  0  0  0
 22 27  1  0  0  0  0
 23 28  1  0  0  0  0
 24 25  1  0  0  0  0
 24 28  2  0  0  0  0
 25 55  1  0  0  0  0
 26 30  2  0  0  0  0
 27 29  2  0  0  0  0
 27 56  1  0  0  0  0
 29 30  1  0  0  0  0
 31 34  2  0  0  0  0
 31 35  1  0  0  0  0
 32 33  1  0  0  0  0
 32 36  2  0  0  0  0
 32 37  1  0  0  0  0
 33 38  2  0  0  0  0
 33 39  1  0  0  0  0
 34 36  1  0  0  0  0
 34 60  1  0  0  0  0
 35 37  2  0  0  0  0
 35 61  1  0  0  0  0
 36 62  1  0  0  0  0
 37 63  1  0  0  0  0
 38 41  1  0  0  0  0
 38 64  1  0  0  0  0
 39 42  2  0  0  0  0
 39 65  1  0  0  0  0
 40 44  2  0  0  0  0
 40 45  1  0  0  0  0
 41 43  2  0  0  0  0
 41 66  1  0  0  0  0
 42 43  1  0  0  0  0
 42 67  1  0  0  0  0
 44 46  1  0  0  0  0
 44 68  1  0  0  0  0
 45 47  2  0  0  0  0
 45 69  1  0  0  0  0
 46 49  2  0  0  0  0
 46 70  1  0  0  0  0
 47 49  1  0  0  0  0
 47 71  1  0  0  0  0
 48 50  2  0  0  0  0
 48 51  1  0  0  0  0
 49 72  1  0  0  0  0
 50 52  1  0  0  0  0
 51 54  2  0  0  0  0
 51 73  1  0  0  0  0
 52 53  2  0  0  0  0
 52 74  1  0  0  0  0
 53 54  1  0  0  0  0
 54 75  1  0  0  0  0
M  CHG  4   3   1   4   1   6  -1   9  -1
M  END
> <PUBCHEM_COMPOUND_CID>
5284349

> <PUBCHEM_COMPOUND_CANONICALIZED>
1

> <PUBCHEM_CACTVS_COMPLEXITY>
1460

> <PUBCHEM_CACTVS_HBOND_ACCEPTOR>
16

> <PUBCHEM_CACTVS_HBOND_DONOR>
4

> <PUBCHEM_CACTVS_ROTATABLE_BOND>
7

> <PUBCHEM_CACTVS_SUBSKEYS>
AAADceB/+DBgAAAAAAAAAAAAAAAAAAAAAAAwYMGDAAAAAADBVAAAHgQYCAAADAyB2AAwx8BAAgKCAiRCQHDCAEAgIgAIiBwFfIgKZiKS0dOAcARm0BkI2AewwPAOmACBxCQaESAwAQOISDQiQAAAAAAAAA==

> <PUBCHEM_IUPAC_OPENEYE_NAME>
disodium;4-amino-3-[4-[4-(2,4-diaminophenyl)azophenyl]phenyl]azo-5-hydroxy-6-phenylazo-naphthalene-2,7-disulfonate

> <PUBCHEM_IUPAC_CAS_NAME>
disodium;4-amino-3-[4-[4-(2,4-diaminophenyl)azophenyl]phenyl]azo-5-hydroxy-6-phenyldiazenylnaphthalene-2,7-disulfonate

> <PUBCHEM_IUPAC_NAME_MARKUP>
disodium;4-amino-3-[[4-[4-[(2,4-diaminophenyl)diazenyl]phenyl]phenyl]diazenyl]-5-hydroxy-6-phenyldiazenylnaphthalene-2,7-disulfonate

> <PUBCHEM_IUPAC_NAME>
disodium;4-amino-3-[[4-[4-[(2,4-diaminophenyl)diazenyl]phenyl]phenyl]diazenyl]-5-hydroxy-6-phenyldiazenylnaphthalene-2,7-disulfonate

> <PUBCHEM_IUPAC_SYSTEMATIC_NAME>
disodium;4-azanyl-3-[[4-[4-[[2,4-bis(azanyl)phenyl]diazenyl]phenyl]phenyl]diazenyl]-5-oxidanyl-6-phenyldiazenyl-naphthalene-2,7-disulfonate

> <PUBCHEM_IUPAC_TRADITIONAL_NAME>
disodium;4-amino-3-[4-[4-(2,4-diaminophenyl)azophenyl]phenyl]azo-5-hydroxy-6-phenylazo-naphthalene-2,7-disulfonate

> <PUBCHEM_IUPAC_INCHI>
InChI=1S/C34H27N9O7S2.2Na/c35-22-10-15-27(26(36)18-22)41-38-24-11-6-19(7-12-24)20-8-13-25(14-9-20)40-42-32-28(51(45,46)47)16-21-17-29(52(48,49)50)33(34(44)30(21)31(32)37)43-39-23-4-2-1-3-5-23;;/h1-18,44H,35-37H2,(H,45,46,47)(H,48,49,50);;/q;2*+1/p-2

> <PUBCHEM_IUPAC_INCHIKEY>
XRPLBRIHZGVJIC-UHFFFAOYSA-L

> <PUBCHEM_EXACT_MASS>
781.11137508

> <PUBCHEM_MOLECULAR_FORMULA>
C34H25N9Na2O7S2

> <PUBCHEM_MOLECULAR_WEIGHT>
781.7

> <PUBCHEM_SMILES>
C1=CC=C(C=C1)N=NC2=C(C3=C(C(=C(C=C3C=C2S(=O)(=O)[O-])S(=O)(=O)[O-])N=NC4=CC=C(C=C4)C5=CC=C(C=C5)N=NC6=C(C=C(C=C6)N)N)N)O.[Na+].[Na+]

> <PUBCHEM_CONNECTIVITY_SMILES>
C1=CC=C(C=C1)N=NC2=C(C3=C(C(=C(C=C3C=C2S(=O)(=O)[O-])S(=O)(=O)[O-])N=NC4=CC=C(C=C4)C5=CC=C(C=C5)N=NC6=C(C=C(C=C6)N)N)N)O.[Na+].[Na+]

> <PUBCHEM_CACTVS_TPSA>
304

> <PUBCHEM_MONOISOTOPIC_WEIGHT>
781.11137508

> <PUBCHEM_TOTAL_CHARGE>
0

> <PUBCHEM_HEAVY_ATOM_COUNT>
54

> <PUBCHEM_ATOM_DEF_STEREO_COUNT>
0

> <PUBCHEM_ATOM_UDEF_STEREO_COUNT>
0

> <PUBCHEM_BOND_DEF_STEREO_COUNT>
0

> <PUBCHEM_BOND_UDEF_STEREO_COUNT>
0

> <PUBCHEM_ISOTOPIC_ATOM_COUNT>
0

> <PUBCHEM_COMPONENT_COUNT>
3

> <PUBCHEM_CACTVS_TAUTO_COUNT>
-1

> <PUBCHEM_COORDINATE_TYPE>
1
5
255

> <PUBCHEM_BONDANNOTATIONS>
21  22  8
21  23  8
21  26  8
22  25  8
22  27  8
23  28  8
24  25  8
24  28  8
26  30  8
27  29  8
29  30  8
31  34  8
31  35  8
32  36  8
32  37  8
33  38  8
33  39  8
34  36  8
35  37  8
38  41  8
39  42  8
40  44  8
40  45  8
41  43  8
42  43  8
44  46  8
45  47  8
46  49  8
47  49  8
48  50  8
48  51  8
50  52  8
51  54  8
52  53  8
53  54  8

$$$$
