528787
  -OEChem-05122608342D

180180  0     0  0  0  0  0  0999 V2000
   13.6142   -2.8684    0.0000 Si  0  0  0  0  0  0  0  0  0  0  0  0
   12.3335   -4.3947    0.0000 Si  0  0  0  0  0  0  0  0  0  0  0  0
   14.2956   -0.9962    0.0000 Si  0  0  0  0  0  0  0  0  0  0  0  0
   10.6080   -5.3909    0.0000 Si  0  0  0  0  0  0  0  0  0  0  0  0
   14.2956    0.9962    0.0000 Si  0  0  0  0  0  0  0  0  0  0  0  0
    8.6459   -5.7369    0.0000 Si  0  0  0  0  0  0  0  0  0  0  0  0
   13.6142    2.8684    0.0000 Si  0  0  0  0  0  0  0  0  0  0  0  0
    6.6838   -5.3909    0.0000 Si  0  0  0  0  0  0  0  0  0  0  0  0
   12.3335    4.3947    0.0000 Si  0  0  0  0  0  0  0  0  0  0  0  0
    4.9583   -4.3947    0.0000 Si  0  0  0  0  0  0  0  0  0  0  0  0
   10.6080    5.3909    0.0000 Si  0  0  0  0  0  0  0  0  0  0  0  0
    3.6776   -2.8684    0.0000 Si  0  0  0  0  0  0  0  0  0  0  0  0
    8.6459    5.7369    0.0000 Si  0  0  0  0  0  0  0  0  0  0  0  0
    2.9962   -0.9962    0.0000 Si  0  0  0  0  0  0  0  0  0  0  0  0
    6.6838    5.3909    0.0000 Si  0  0  0  0  0  0  0  0  0  0  0  0
    2.9962    0.9962    0.0000 Si  0  0  0  0  0  0  0  0  0  0  0  0
    4.9583    4.3947    0.0000 Si  0  0  0  0  0  0  0  0  0  0  0  0
    3.6776    2.8684    0.0000 Si  0  0  0  0  0  0  0  0  0  0  0  0
   13.0406   -3.6876    0.0000 O   0  0  0  0  0  0  0  0  0  0  0  0
   14.0368   -1.9621    0.0000 O   0  0  0  0  0  0  0  0  0  0  0  0
   11.5143   -4.9683    0.0000 O   0  0  0  0  0  0  0  0  0  0  0  0
   14.3828    0.0000    0.0000 O   0  0  0  0  0  0  0  0  0  0  0  0
    9.6421   -5.6497    0.0000 O   0  0  0  0  0  0  0  0  0  0  0  0
   14.0368    1.9621    0.0000 O   0  0  0  0  0  0  0  0  0  0  0  0
    7.6497   -5.6497    0.0000 O   0  0  0  0  0  0  0  0  0  0  0  0
   13.0406    3.6876    0.0000 O   0  0  0  0  0  0  0  0  0  0  0  0
    5.7775   -4.9683    0.0000 O   0  0  0  0  0  0  0  0  0  0  0  0
   11.5143    4.9683    0.0000 O   0  0  0  0  0  0  0  0  0  0  0  0
    4.2512   -3.6876    0.0000 O   0  0  0  0  0  0  0  0  0  0  0  0
    9.6421    5.6497    0.0000 O   0  0  0  0  0  0  0  0  0  0  0  0
    3.2550   -1.9621    0.0000 O   0  0  0  0  0  0  0  0  0  0  0  0
    7.6497    5.6497    0.0000 O   0  0  0  0  0  0  0  0  0  0  0  0
    2.9090   -0.0000    0.0000 O   0  0  0  0  0  0  0  0  0  0  0  0
    5.7775    4.9683    0.0000 O   0  0  0  0  0  0  0  0  0  0  0  0
    3.2550    1.9621    0.0000 O   0  0  0  0  0  0  0  0  0  0  0  0
    4.2512    3.6876    0.0000 O   0  0  0  0  0  0  0  0  0  0  0  0
   14.3213   -3.5755    0.0000 C   0  0  0  0  0  0  0  0  0  0  0  0
   14.6104   -2.7813    0.0000 C   0  0  0  0  0  0  0  0  0  0  0  0
   12.7561   -5.3010    0.0000 C   0  0  0  0  0  0  0  0  0  0  0  0
   13.2994   -4.6535    0.0000 C   0  0  0  0  0  0  0  0  0  0  0  0
   15.2019   -1.4188    0.0000 C   0  0  0  0  0  0  0  0  0  0  0  0
   15.2019   -0.5736    0.0000 C   0  0  0  0  0  0  0  0  0  0  0  0
   10.6952   -6.3871    0.0000 C   0  0  0  0  0  0  0  0  0  0  0  0
   11.4272   -5.9645    0.0000 C   0  0  0  0  0  0  0  0  0  0  0  0
   15.2918    0.9090    0.0000 C   0  0  0  0  0  0  0  0  0  0  0  0
   15.0027    1.7033    0.0000 C   0  0  0  0  0  0  0  0  0  0  0  0
    9.2195   -6.5560    0.0000 C   0  0  0  0  0  0  0  0  0  0  0  0
    8.3871   -6.7028    0.0000 C   0  0  0  0  0  0  0  0  0  0  0  0
   14.5801    3.1273    0.0000 C   0  0  0  0  0  0  0  0  0  0  0  0
   14.0368    3.7747    0.0000 C   0  0  0  0  0  0  0  0  0  0  0  0
    6.9427   -6.3568    0.0000 C   0  0  0  0  0  0  0  0  0  0  0  0
    6.1102   -6.2100    0.0000 C   0  0  0  0  0  0  0  0  0  0  0  0
   13.1526    4.9683    0.0000 C   0  0  0  0  0  0  0  0  0  0  0  0
   12.4206    5.3909    0.0000 C   0  0  0  0  0  0  0  0  0  0  0  0
    4.8712   -5.3909    0.0000 C   0  0  0  0  0  0  0  0  0  0  0  0
    4.1392   -4.9683    0.0000 C   0  0  0  0  0  0  0  0  0  0  0  0
   11.1816    6.2100    0.0000 C   0  0  0  0  0  0  0  0  0  0  0  0
   10.3492    6.3568    0.0000 C   0  0  0  0  0  0  0  0  0  0  0  0
    3.2550   -3.7747    0.0000 C   0  0  0  0  0  0  0  0  0  0  0  0
    2.7117   -3.1273    0.0000 C   0  0  0  0  0  0  0  0  0  0  0  0
    8.9047    6.7028    0.0000 C   0  0  0  0  0  0  0  0  0  0  0  0
    8.0723    6.5560    0.0000 C   0  0  0  0  0  0  0  0  0  0  0  0
    2.2891   -1.7033    0.0000 C   0  0  0  0  0  0  0  0  0  0  0  0
    2.0000   -0.9090    0.0000 C   0  0  0  0  0  0  0  0  0  0  0  0
    6.5966    6.3871    0.0000 C   0  0  0  0  0  0  0  0  0  0  0  0
    5.8646    5.9645    0.0000 C   0  0  0  0  0  0  0  0  0  0  0  0
    2.0899    0.5737    0.0000 C   0  0  0  0  0  0  0  0  0  0  0  0
    2.0899    1.4188    0.0000 C   0  0  0  0  0  0  0  0  0  0  0  0
    4.5357    5.3010    0.0000 C   0  0  0  0  0  0  0  0  0  0  0  0
    3.9924    4.6535    0.0000 C   0  0  0  0  0  0  0  0  0  0  0  0
    2.6814    2.7813    0.0000 C   0  0  0  0  0  0  0  0  0  0  0  0
    2.9705    3.5755    0.0000 C   0  0  0  0  0  0  0  0  0  0  0  0
   13.8829   -4.0139    0.0000 H   0  0  0  0  0  0  0  0  0  0  0  0
   14.7597   -4.0139    0.0000 H   0  0  0  0  0  0  0  0  0  0  0  0
   14.7597   -3.1371    0.0000 H   0  0  0  0  0  0  0  0  0  0  0  0
   14.6644   -3.3989    0.0000 H   0  0  0  0  0  0  0  0  0  0  0  0
   15.2280   -2.7272    0.0000 H   0  0  0  0  0  0  0  0  0  0  0  0
   14.5563   -2.1636    0.0000 H   0  0  0  0  0  0  0  0  0  0  0  0
   12.1942   -5.5630    0.0000 H   0  0  0  0  0  0  0  0  0  0  0  0
   13.0181   -5.8629    0.0000 H   0  0  0  0  0  0  0  0  0  0  0  0
   13.3180   -5.0390    0.0000 H   0  0  0  0  0  0  0  0  0  0  0  0
   13.1389   -5.2524    0.0000 H   0  0  0  0  0  0  0  0  0  0  0  0
   13.8983   -4.8140    0.0000 H   0  0  0  0  0  0  0  0  0  0  0  0
   13.4599   -4.0546    0.0000 H   0  0  0  0  0  0  0  0  0  0  0  0
   14.9399   -1.9807    0.0000 H   0  0  0  0  0  0  0  0  0  0  0  0
   15.7638   -1.6808    0.0000 H   0  0  0  0  0  0  0  0  0  0  0  0
   15.4639   -0.8569    0.0000 H   0  0  0  0  0  0  0  0  0  0  0  0
   15.4639   -1.1355    0.0000 H   0  0  0  0  0  0  0  0  0  0  0  0
   15.7638   -0.3116    0.0000 H   0  0  0  0  0  0  0  0  0  0  0  0
   14.9399   -0.0117    0.0000 H   0  0  0  0  0  0  0  0  0  0  0  0
   10.0775   -6.4411    0.0000 H   0  0  0  0  0  0  0  0  0  0  0  0
   10.7492   -7.0047    0.0000 H   0  0  0  0  0  0  0  0  0  0  0  0
   11.3128   -6.3330    0.0000 H   0  0  0  0  0  0  0  0  0  0  0  0
   11.0716   -6.4723    0.0000 H   0  0  0  0  0  0  0  0  0  0  0  0
   11.9350   -6.3201    0.0000 H   0  0  0  0  0  0  0  0  0  0  0  0
   11.7828   -5.4566    0.0000 H   0  0  0  0  0  0  0  0  0  0  0  0
   15.2378    0.2914    0.0000 H   0  0  0  0  0  0  0  0  0  0  0  0
   15.9094    0.8550    0.0000 H   0  0  0  0  0  0  0  0  0  0  0  0
   15.3458    1.5267    0.0000 H   0  0  0  0  0  0  0  0  0  0  0  0
   15.4411    1.2649    0.0000 H   0  0  0  0  0  0  0  0  0  0  0  0
   15.4411    2.1417    0.0000 H   0  0  0  0  0  0  0  0  0  0  0  0
   14.5643    2.1417    0.0000 H   0  0  0  0  0  0  0  0  0  0  0  0
    8.7116   -6.9116    0.0000 H   0  0  0  0  0  0  0  0  0  0  0  0
    9.5751   -7.0639    0.0000 H   0  0  0  0  0  0  0  0  0  0  0  0
    9.7274   -6.2004    0.0000 H   0  0  0  0  0  0  0  0  0  0  0  0
    7.7882   -6.5423    0.0000 H   0  0  0  0  0  0  0  0  0  0  0  0
    8.2266   -7.3017    0.0000 H   0  0  0  0  0  0  0  0  0  0  0  0
    8.9860   -6.8633    0.0000 H   0  0  0  0  0  0  0  0  0  0  0  0
   14.7406    2.5284    0.0000 H   0  0  0  0  0  0  0  0  0  0  0  0
   15.1790    3.2877    0.0000 H   0  0  0  0  0  0  0  0  0  0  0  0
   14.4196    3.7261    0.0000 H   0  0  0  0  0  0  0  0  0  0  0  0
   14.5987    3.5127    0.0000 H   0  0  0  0  0  0  0  0  0  0  0  0
   14.2988    4.3367    0.0000 H   0  0  0  0  0  0  0  0  0  0  0  0
   13.4749    4.0368    0.0000 H   0  0  0  0  0  0  0  0  0  0  0  0
    6.3438   -6.5173    0.0000 H   0  0  0  0  0  0  0  0  0  0  0  0
    7.1032   -6.9556    0.0000 H   0  0  0  0  0  0  0  0  0  0  0  0
    7.5415   -6.1963    0.0000 H   0  0  0  0  0  0  0  0  0  0  0  0
    5.6023   -5.8544    0.0000 H   0  0  0  0  0  0  0  0  0  0  0  0
    5.7546   -6.7179    0.0000 H   0  0  0  0  0  0  0  0  0  0  0  0
    6.6181   -6.5657    0.0000 H   0  0  0  0  0  0  0  0  0  0  0  0
   13.5082    4.4604    0.0000 H   0  0  0  0  0  0  0  0  0  0  0  0
   13.6605    5.3239    0.0000 H   0  0  0  0  0  0  0  0  0  0  0  0
   12.7970    5.4761    0.0000 H   0  0  0  0  0  0  0  0  0  0  0  0
   13.0383    5.3369    0.0000 H   0  0  0  0  0  0  0  0  0  0  0  0
   12.4747    6.0085    0.0000 H   0  0  0  0  0  0  0  0  0  0  0  0
   11.8030    5.4449    0.0000 H   0  0  0  0  0  0  0  0  0  0  0  0
    4.2536   -5.3369    0.0000 H   0  0  0  0  0  0  0  0  0  0  0  0
    4.8172   -6.0085    0.0000 H   0  0  0  0  0  0  0  0  0  0  0  0
    5.4889   -5.4449    0.0000 H   0  0  0  0  0  0  0  0  0  0  0  0
    3.7836   -4.4604    0.0000 H   0  0  0  0  0  0  0  0  0  0  0  0
    3.6313   -5.3239    0.0000 H   0  0  0  0  0  0  0  0  0  0  0  0
    4.4948   -5.4761    0.0000 H   0  0  0  0  0  0  0  0  0  0  0  0
   11.6895    5.8544    0.0000 H   0  0  0  0  0  0  0  0  0  0  0  0
   11.5372    6.7179    0.0000 H   0  0  0  0  0  0  0  0  0  0  0  0
   10.6737    6.5657    0.0000 H   0  0  0  0  0  0  0  0  0  0  0  0
   10.9481    6.5173    0.0000 H   0  0  0  0  0  0  0  0  0  0  0  0
   10.1887    6.9557    0.0000 H   0  0  0  0  0  0  0  0  0  0  0  0
    9.7503    6.1963    0.0000 H   0  0  0  0  0  0  0  0  0  0  0  0
    2.6931   -3.5127    0.0000 H   0  0  0  0  0  0  0  0  0  0  0  0
    2.9930   -4.3367    0.0000 H   0  0  0  0  0  0  0  0  0  0  0  0
    3.8169   -4.0368    0.0000 H   0  0  0  0  0  0  0  0  0  0  0  0
    2.5512   -2.5284    0.0000 H   0  0  0  0  0  0  0  0  0  0  0  0
    2.1128   -3.2877    0.0000 H   0  0  0  0  0  0  0  0  0  0  0  0
    2.8722   -3.7261    0.0000 H   0  0  0  0  0  0  0  0  0  0  0  0
    9.5036    6.5423    0.0000 H   0  0  0  0  0  0  0  0  0  0  0  0
    9.0652    7.3017    0.0000 H   0  0  0  0  0  0  0  0  0  0  0  0
    8.3058    6.8633    0.0000 H   0  0  0  0  0  0  0  0  0  0  0  0
    8.5802    6.9116    0.0000 H   0  0  0  0  0  0  0  0  0  0  0  0
    7.7167    7.0639    0.0000 H   0  0  0  0  0  0  0  0  0  0  0  0
    7.5645    6.2004    0.0000 H   0  0  0  0  0  0  0  0  0  0  0  0
    1.8507   -1.2648    0.0000 H   0  0  0  0  0  0  0  0  0  0  0  0
    1.8506   -2.1417    0.0000 H   0  0  0  0  0  0  0  0  0  0  0  0
    2.7274   -2.1417    0.0000 H   0  0  0  0  0  0  0  0  0  0  0  0
    2.0540   -0.2914    0.0000 H   0  0  0  0  0  0  0  0  0  0  0  0
    1.3824   -0.8550    0.0000 H   0  0  0  0  0  0  0  0  0  0  0  0
    1.9460   -1.5267    0.0000 H   0  0  0  0  0  0  0  0  0  0  0  0
    7.2143    6.4411    0.0000 H   0  0  0  0  0  0  0  0  0  0  0  0
    6.5426    7.0047    0.0000 H   0  0  0  0  0  0  0  0  0  0  0  0
    5.9790    6.3330    0.0000 H   0  0  0  0  0  0  0  0  0  0  0  0
    6.2202    6.4723    0.0000 H   0  0  0  0  0  0  0  0  0  0  0  0
    5.3568    6.3201    0.0000 H   0  0  0  0  0  0  0  0  0  0  0  0
    5.5090    5.4566    0.0000 H   0  0  0  0  0  0  0  0  0  0  0  0
    1.8279    1.1356    0.0000 H   0  0  0  0  0  0  0  0  0  0  0  0
    1.5279    0.3117    0.0000 H   0  0  0  0  0  0  0  0  0  0  0  0
    2.3518    0.0117    0.0000 H   0  0  0  0  0  0  0  0  0  0  0  0
    2.3519    1.9807    0.0000 H   0  0  0  0  0  0  0  0  0  0  0  0
    1.5280    1.6808    0.0000 H   0  0  0  0  0  0  0  0  0  0  0  0
    1.8279    0.8569    0.0000 H   0  0  0  0  0  0  0  0  0  0  0  0
    5.0976    5.5630    0.0000 H   0  0  0  0  0  0  0  0  0  0  0  0
    4.2737    5.8629    0.0000 H   0  0  0  0  0  0  0  0  0  0  0  0
    3.9738    5.0390    0.0000 H   0  0  0  0  0  0  0  0  0  0  0  0
    4.1529    5.2524    0.0000 H   0  0  0  0  0  0  0  0  0  0  0  0
    3.3935    4.8140    0.0000 H   0  0  0  0  0  0  0  0  0  0  0  0
    3.8319    4.0546    0.0000 H   0  0  0  0  0  0  0  0  0  0  0  0
    2.6274    3.3989    0.0000 H   0  0  0  0  0  0  0  0  0  0  0  0
    2.0638    2.7272    0.0000 H   0  0  0  0  0  0  0  0  0  0  0  0
    2.7355    2.1636    0.0000 H   0  0  0  0  0  0  0  0  0  0  0  0
    3.4089    4.0139    0.0000 H   0  0  0  0  0  0  0  0  0  0  0  0
    2.5321    4.0139    0.0000 H   0  0  0  0  0  0  0  0  0  0  0  0
    2.5321    3.1371    0.0000 H   0  0  0  0  0  0  0  0  0  0  0  0
  1 19  1  0  0  0  0
  1 20  1  0  0  0  0
  1 37  1  0  0  0  0
  1 38  1  0  0  0  0
  2 19  1  0  0  0  0
  2 21  1  0  0  0  0
  2 39  1  0  0  0  0
  2 40  1  0  0  0  0
  3 20  1  0  0  0  0
  3 22  1  0  0  0  0
  3 41  1  0  0  0  0
  3 42  1  0  0  0  0
  4 21  1  0  0  0  0
  4 23  1  0  0  0  0
  4 43  1  0  0  0  0
  4 44  1  0  0  0  0
  5 22  1  0  0  0  0
  5 24  1  0  0  0  0
  5 45  1  0  0  0  0
  5 46  1  0  0  0  0
  6 23  1  0  0  0  0
  6 25  1  0  0  0  0
  6 47  1  0  0  0  0
  6 48  1  0  0  0  0
  7 24  1  0  0  0  0
  7 26  1  0  0  0  0
  7 49  1  0  0  0  0
  7 50  1  0  0  0  0
  8 25  1  0  0  0  0
  8 27  1  0  0  0  0
  8 51  1  0  0  0  0
  8 52  1  0  0  0  0
  9 26  1  0  0  0  0
  9 28  1  0  0  0  0
  9 53  1  0  0  0  0
  9 54  1  0  0  0  0
 10 27  1  0  0  0  0
 10 29  1  0  0  0  0
 10 55  1  0  0  0  0
 10 56  1  0  0  0  0
 11 28  1  0  0  0  0
 11 30  1  0  0  0  0
 11 57  1  0  0  0  0
 11 58  1  0  0  0  0
 12 29  1  0  0  0  0
 12 31  1  0  0  0  0
 12 59  1  0  0  0  0
 12 60  1  0  0  0  0
 13 30  1  0  0  0  0
 13 32  1  0  0  0  0
 13 61  1  0  0  0  0
 13 62  1  0  0  0  0
 14 31  1  0  0  0  0
 14 33  1  0  0  0  0
 14 63  1  0  0  0  0
 14 64  1  0  0  0  0
 15 32  1  0  0  0  0
 15 34  1  0  0  0  0
 15 65  1  0  0  0  0
 15 66  1  0  0  0  0
 16 33  1  0  0  0  0
 16 35  1  0  0  0  0
 16 67  1  0  0  0  0
 16 68  1  0  0  0  0
 17 34  1  0  0  0  0
 17 36  1  0  0  0  0
 17 69  1  0  0  0  0
 17 70  1  0  0  0  0
 18 35  1  0  0  0  0
 18 36  1  0  0  0  0
 18 71  1  0  0  0  0
 18 72  1  0  0  0  0
 37 73  1  0  0  0  0
 37 74  1  0  0  0  0
 37 75  1  0  0  0  0
 38 76  1  0  0  0  0
 38 77  1  0  0  0  0
 38 78  1  0  0  0  0
 39 79  1  0  0  0  0
 39 80  1  0  0  0  0
 39 81  1  0  0  0  0
 40 82  1  0  0  0  0
 40 83  1  0  0  0  0
 40 84  1  0  0  0  0
 41 85  1  0  0  0  0
 41 86  1  0  0  0  0
 41 87  1  0  0  0  0
 42 88  1  0  0  0  0
 42 89  1  0  0  0  0
 42 90  1  0  0  0  0
 43 91  1  0  0  0  0
 43 92  1  0  0  0  0
 43 93  1  0  0  0  0
 44 94  1  0  0  0  0
 44 95  1  0  0  0  0
 44 96  1  0  0  0  0
 45 97  1  0  0  0  0
 45 98  1  0  0  0  0
 45 99  1  0  0  0  0
 46100  1  0  0  0  0
 46101  1  0  0  0  0
 46102  1  0  0  0  0
 47103  1  0  0  0  0
 47104  1  0  0  0  0
 47105  1  0  0  0  0
 48106  1  0  0  0  0
 48107  1  0  0  0  0
 48108  1  0  0  0  0
 49109  1  0  0  0  0
 49110  1  0  0  0  0
 49111  1  0  0  0  0
 50112  1  0  0  0  0
 50113  1  0  0  0  0
 50114  1  0  0  0  0
 51115  1  0  0  0  0
 51116  1  0  0  0  0
 51117  1  0  0  0  0
 52118  1  0  0  0  0
 52119  1  0  0  0  0
 52120  1  0  0  0  0
 53121  1  0  0  0  0
 53122  1  0  0  0  0
 53123  1  0  0  0  0
 54124  1  0  0  0  0
 54125  1  0  0  0  0
 54126  1  0  0  0  0
 55127  1  0  0  0  0
 55128  1  0  0  0  0
 55129  1  0  0  0  0
 56130  1  0  0  0  0
 56131  1  0  0  0  0
 56132  1  0  0  0  0
 57133  1  0  0  0  0
 57134  1  0  0  0  0
 57135  1  0  0  0  0
 58136  1  0  0  0  0
 58137  1  0  0  0  0
 58138  1  0  0  0  0
 59139  1  0  0  0  0
 59140  1  0  0  0  0
 59141  1  0  0  0  0
 60142  1  0  0  0  0
 60143  1  0  0  0  0
 60144  1  0  0  0  0
 61145  1  0  0  0  0
 61146  1  0  0  0  0
 61147  1  0  0  0  0
 62148  1  0  0  0  0
 62149  1  0  0  0  0
 62150  1  0  0  0  0
 63151  1  0  0  0  0
 63152  1  0  0  0  0
 63153  1  0  0  0  0
 64154  1  0  0  0  0
 64155  1  0  0  0  0
 64156  1  0  0  0  0
 65157  1  0  0  0  0
 65158  1  0  0  0  0
 65159  1  0  0  0  0
 66160  1  0  0  0  0
 66161  1  0  0  0  0
 66162  1  0  0  0  0
 67163  1  0  0  0  0
 67164  1  0  0  0  0
 67165  1  0  0  0  0
 68166  1  0  0  0  0
 68167  1  0  0  0  0
 68168  1  0  0  0  0
 69169  1  0  0  0  0
 69170  1  0  0  0  0
 69171  1  0  0  0  0
 70172  1  0  0  0  0
 70173  1  0  0  0  0
 70174  1  0  0  0  0
 71175  1  0  0  0  0
 71176  1  0  0  0  0
 71177  1  0  0  0  0
 72178  1  0  0  0  0
 72179  1  0  0  0  0
 72180  1  0  0  0  0
M  END
> <PUBCHEM_COMPOUND_CID>
528787

> <PUBCHEM_COMPOUND_CANONICALIZED>
1

> <PUBCHEM_CACTVS_COMPLEXITY>
1160

> <PUBCHEM_CACTVS_HBOND_ACCEPTOR>
18

> <PUBCHEM_CACTVS_HBOND_DONOR>
0

> <PUBCHEM_CACTVS_ROTATABLE_BOND>
0

> <PUBCHEM_CACTVS_SUBSKEYS>
AAADcfB8PgwAAAAAAAAAAAAAAAAAAAAAAAAAAAAAAAAAAAAAAAAAEBAAAEAAAAAAAABCAAAAAAEAAAAAAAAAAAAAAAAAAAAAAAAAAAAAAAAAAAAAAAAAAAAAAAAAAAAAAAAAAAAAAAAAAAAAAAAAAAAAAA==

> <PUBCHEM_IUPAC_OPENEYE_NAME>
2,2,4,4,6,6,8,8,10,10,12,12,14,14,16,16,18,18,20,20,22,22,24,24,26,26,28,28,30,30,32,32,34,34,36,36-hexatriacontamethyl-1,3,5,7,9,11,13,15,17,19,21,23,25,27,29,31,33,35-octadecaoxa-2,4,6,8,10,12,14,16,18,20,22,24,26,28,30,32,34,36-octadecasilacyclohexatriacontane

> <PUBCHEM_IUPAC_CAS_NAME>
2,2,4,4,6,6,8,8,10,10,12,12,14,14,16,16,18,18,20,20,22,22,24,24,26,26,28,28,30,30,32,32,34,34,36,36-hexatriacontamethyl-1,3,5,7,9,11,13,15,17,19,21,23,25,27,29,31,33,35-octadecaoxa-2,4,6,8,10,12,14,16,18,20,22,24,26,28,30,32,34,36-octadecasilacyclohexatriacontane

> <PUBCHEM_IUPAC_NAME_MARKUP>
2,2,4,4,6,6,8,8,10,10,12,12,14,14,16,16,18,18,20,20,22,22,24,24,26,26,28,28,30,30,32,32,34,34,36,36-hexatriacontamethyl-1,3,5,7,9,11,13,15,17,19,21,23,25,27,29,31,33,35-octadecaoxa-2,4,6,8,10,12,14,16,18,20,22,24,26,28,30,32,34,36-octadecasilacyclohexatriacontane

> <PUBCHEM_IUPAC_NAME>
2,2,4,4,6,6,8,8,10,10,12,12,14,14,16,16,18,18,20,20,22,22,24,24,26,26,28,28,30,30,32,32,34,34,36,36-hexatriacontamethyl-1,3,5,7,9,11,13,15,17,19,21,23,25,27,29,31,33,35-octadecaoxa-2,4,6,8,10,12,14,16,18,20,22,24,26,28,30,32,34,36-octadecasilacyclohexatriacontane

> <PUBCHEM_IUPAC_SYSTEMATIC_NAME>
2,2,4,4,6,6,8,8,10,10,12,12,14,14,16,16,18,18,20,20,22,22,24,24,26,26,28,28,30,30,32,32,34,34,36,36-hexatriacontamethyl-1,3,5,7,9,11,13,15,17,19,21,23,25,27,29,31,33,35-octadecaoxa-2,4,6,8,10,12,14,16,18,20,22,24,26,28,30,32,34,36-octadecasilacyclohexatriacontane

> <PUBCHEM_IUPAC_TRADITIONAL_NAME>
2,2,4,4,6,6,8,8,10,10,12,12,14,14,16,16,18,18,20,20,22,22,24,24,26,26,28,28,30,30,32,32,34,34,36,36-hexatriacontamethyl-1,3,5,7,9,11,13,15,17,19,21,23,25,27,29,31,33,35-octadecaoxa-2,4,6,8,10,12,14,16,18,20,22,24,26,28,30,32,34,36-octadecasilacyclohexatriacontane

> <PUBCHEM_IUPAC_INCHI>
InChI=1S/C36H108O18Si18/c1-55(2)37-56(3,4)39-58(7,8)41-60(11,12)43-62(15,16)45-64(19,20)47-66(23,24)49-68(27,28)51-70(31,32)53-72(35,36)54-71(33,34)52-69(29,30)50-67(25,26)48-65(21,22)46-63(17,18)44-61(13,14)42-59(9,10)40-57(5,6)38-55/h1-36H3

> <PUBCHEM_IUPAC_INCHIKEY>
FZWBYDHCNDGMTB-UHFFFAOYSA-N

> <PUBCHEM_EXACT_MASS>
1332.3382442

> <PUBCHEM_MOLECULAR_FORMULA>
C36H108O18Si18

> <PUBCHEM_MOLECULAR_WEIGHT>
1334.8

> <PUBCHEM_SMILES>
C[Si]1(O[Si](O[Si](O[Si](O[Si](O[Si](O[Si](O[Si](O[Si](O[Si](O[Si](O[Si](O[Si](O[Si](O[Si](O[Si](O[Si](O[Si](O1)(C)C)(C)C)(C)C)(C)C)(C)C)(C)C)(C)C)(C)C)(C)C)(C)C)(C)C)(C)C)(C)C)(C)C)(C)C)(C)C)(C)C)C

> <PUBCHEM_CONNECTIVITY_SMILES>
C[Si]1(O[Si](O[Si](O[Si](O[Si](O[Si](O[Si](O[Si](O[Si](O[Si](O[Si](O[Si](O[Si](O[Si](O[Si](O[Si](O[Si](O[Si](O1)(C)C)(C)C)(C)C)(C)C)(C)C)(C)C)(C)C)(C)C)(C)C)(C)C)(C)C)(C)C)(C)C)(C)C)(C)C)(C)C)(C)C)C

> <PUBCHEM_CACTVS_TPSA>
166

> <PUBCHEM_MONOISOTOPIC_WEIGHT>
1332.3382442

> <PUBCHEM_TOTAL_CHARGE>
0

> <PUBCHEM_HEAVY_ATOM_COUNT>
72

> <PUBCHEM_ATOM_DEF_STEREO_COUNT>
0

> <PUBCHEM_ATOM_UDEF_STEREO_COUNT>
0

> <PUBCHEM_BOND_DEF_STEREO_COUNT>
0

> <PUBCHEM_BOND_UDEF_STEREO_COUNT>
0

> <PUBCHEM_ISOTOPIC_ATOM_COUNT>
0

> <PUBCHEM_COMPONENT_COUNT>
1

> <PUBCHEM_CACTVS_TAUTO_COUNT>
-1

> <PUBCHEM_COORDINATE_TYPE>
1
5
255

$$$$
