52915299
  -OEChem-05122608162D

 25 24  0     1  0  0  0  0  0999 V2000
    5.9641   -1.4330    0.0000 F   0  0  0  0  0  0  0  0  0  0  0  0
    4.9641    0.2990    0.0000 F   0  0  0  0  0  0  0  0  0  0  0  0
    5.8301    0.7990    0.0000 F   0  0  0  0  0  0  0  0  0  0  0  0
    6.8301   -0.9330    0.0000 F   0  0  0  0  0  0  0  0  0  0  0  0
    4.0981   -0.2010    0.0000 F   0  0  0  0  0  0  0  0  0  0  0  0
    5.0981   -1.9330    0.0000 F   0  0  0  0  0  0  0  0  0  0  0  0
    8.0622   -1.0670    0.0000 F   0  0  0  0  0  0  0  0  0  0  0  0
    9.4282   -0.4330    0.0000 F   0  0  0  0  0  0  0  0  0  0  0  0
    8.4282    1.2990    0.0000 F   0  0  0  0  0  0  0  0  0  0  0  0
    2.0000   -0.5670    0.0000 F   0  0  0  0  0  0  0  0  0  0  0  0
    2.3660   -1.9330    0.0000 F   0  0  0  0  0  0  0  0  0  0  0  0
    3.3660   -0.2010    0.0000 F   0  0  0  0  0  0  0  0  0  0  0  0
    7.1962    0.4330    0.0000 O   0  0  0  0  0  0  0  0  0  0  0  0
    3.7321   -1.5670    0.0000 O   0  0  0  0  0  0  0  0  0  0  0  0
   10.6603    0.4330    0.0000 O   0  0  0  0  0  0  0  0  0  0  0  0
    9.7942    1.9330    0.0000 O   0  0  0  0  0  0  0  0  0  0  0  0
    5.4641   -0.5670    0.0000 C   0  0  0  0  0  0  0  0  0  0  0  0
    6.3301   -0.0670    0.0000 C   0  0  0  0  0  0  0  0  0  0  0  0
    4.5981   -1.0670    0.0000 C   0  0  0  0  0  0  0  0  0  0  0  0
    8.0622   -0.0670    0.0000 C   0  0  3  0  0  0  0  0  0  0  0  0
    8.9282    0.4330    0.0000 C   0  0  0  0  0  0  0  0  0  0  0  0
    9.7942    0.9330    0.0000 C   0  0  0  0  0  0  0  0  0  0  0  0
    2.8660   -1.0670    0.0000 C   0  0  0  0  0  0  0  0  0  0  0  0
    8.0622    0.5530    0.0000 H   0  0  0  0  0  0  0  0  0  0  0  0
   11.1972    0.7430    0.0000 H   0  0  0  0  0  0  0  0  0  0  0  0
  1 17  1  0  0  0  0
  2 17  1  0  0  0  0
  3 18  1  0  0  0  0
  4 18  1  0  0  0  0
  5 19  1  0  0  0  0
  6 19  1  0  0  0  0
  7 20  1  0  0  0  0
  8 21  1  0  0  0  0
  9 21  1  0  0  0  0
 10 23  1  0  0  0  0
 11 23  1  0  0  0  0
 12 23  1  0  0  0  0
 13 18  1  0  0  0  0
 13 20  1  0  0  0  0
 14 19  1  0  0  0  0
 14 23  1  0  0  0  0
 15 22  1  0  0  0  0
 15 25  1  0  0  0  0
 16 22  2  0  0  0  0
 17 18  1  0  0  0  0
 17 19  1  0  0  0  0
 20 21  1  0  0  0  0
 20 24  1  0  0  0  0
 21 22  1  0  0  0  0
M  END
> <PUBCHEM_COMPOUND_CID>
52915299

> <PUBCHEM_COMPOUND_CANONICALIZED>
1

> <PUBCHEM_CACTVS_COMPLEXITY>
443

> <PUBCHEM_CACTVS_HBOND_ACCEPTOR>
16

> <PUBCHEM_CACTVS_HBOND_DONOR>
1

> <PUBCHEM_CACTVS_ROTATABLE_BOND>
7

> <PUBCHEM_CACTVS_SUBSKEYS>
AAADcQBgOcAAAAAAAAAAAAAAAAAAAAAAAAAAAAAAAAAAAAAAAAAAGwAACAAACACggBIACAAABgAIAACQCAAAAAAAAAAAAAEAAAAAAAQAAAACQAABIAAAAAAAAAAAAAAAAAAAAAAAAAAAAAAAAAAAAAAAAA==

> <PUBCHEM_IUPAC_OPENEYE_NAME>
2,2,3-trifluoro-3-[1,1,2,2,3,3-hexafluoro-3-(trifluoromethoxy)propoxy]propanoic acid

> <PUBCHEM_IUPAC_CAS_NAME>
2,2,3-trifluoro-3-[1,1,2,2,3,3-hexafluoro-3-(trifluoromethoxy)propoxy]propanoic acid

> <PUBCHEM_IUPAC_NAME_MARKUP>
2,2,3-trifluoro-3-[1,1,2,2,3,3-hexafluoro-3-(trifluoromethoxy)propoxy]propanoic acid

> <PUBCHEM_IUPAC_NAME>
2,2,3-trifluoro-3-[1,1,2,2,3,3-hexafluoro-3-(trifluoromethoxy)propoxy]propanoic acid

> <PUBCHEM_IUPAC_SYSTEMATIC_NAME>
2,2,3-tris(fluoranyl)-3-[1,1,2,2,3,3-hexakis(fluoranyl)-3-(trifluoromethyloxy)propoxy]propanoic acid

> <PUBCHEM_IUPAC_TRADITIONAL_NAME>
2,2,3-trifluoro-3-[1,1,2,2,3,3-hexafluoro-3-(trifluoromethoxy)propoxy]propionic acid

> <PUBCHEM_IUPAC_INCHI>
InChI=1S/C7H2F12O4/c8-1(3(9,10)2(20)21)22-5(13,14)4(11,12)6(15,16)23-7(17,18)19/h1H,(H,20,21)

> <PUBCHEM_IUPAC_INCHIKEY>
AFDRCEOKCOUICI-UHFFFAOYSA-N

> <PUBCHEM_XLOGP3_AA>
4.1

> <PUBCHEM_EXACT_MASS>
377.9761465

> <PUBCHEM_MOLECULAR_FORMULA>
C7H2F12O4

> <PUBCHEM_MOLECULAR_WEIGHT>
378.07

> <PUBCHEM_SMILES>
C(C(C(=O)O)(F)F)(OC(C(C(OC(F)(F)F)(F)F)(F)F)(F)F)F

> <PUBCHEM_CONNECTIVITY_SMILES>
C(C(C(=O)O)(F)F)(OC(C(C(OC(F)(F)F)(F)F)(F)F)(F)F)F

> <PUBCHEM_CACTVS_TPSA>
55.8

> <PUBCHEM_MONOISOTOPIC_WEIGHT>
377.9761465

> <PUBCHEM_TOTAL_CHARGE>
0

> <PUBCHEM_HEAVY_ATOM_COUNT>
23

> <PUBCHEM_ATOM_DEF_STEREO_COUNT>
0

> <PUBCHEM_ATOM_UDEF_STEREO_COUNT>
1

> <PUBCHEM_BOND_DEF_STEREO_COUNT>
0

> <PUBCHEM_BOND_UDEF_STEREO_COUNT>
0

> <PUBCHEM_ISOTOPIC_ATOM_COUNT>
0

> <PUBCHEM_COMPONENT_COUNT>
1

> <PUBCHEM_CACTVS_TAUTO_COUNT>
-1

> <PUBCHEM_COORDINATE_TYPE>
1
5
255

> <PUBCHEM_BONDANNOTATIONS>
20  7  3

$$$$
