529303
  -OEChem-05122609202D

 30 29  0     0  0  0  0  0  0999 V2000
    5.4641    1.5000    0.0000 O   0  0  0  0  0  0  0  0  0  0  0  0
    4.5981    1.0000    0.0000 C   0  0  0  0  0  0  0  0  0  0  0  0
    3.7321    0.5000    0.0000 C   0  0  0  0  0  0  0  0  0  0  0  0
    5.0981    0.1340    0.0000 C   0  0  0  0  0  0  0  0  0  0  0  0
    4.0981    1.8660    0.0000 C   0  0  0  0  0  0  0  0  0  0  0  0
    2.8660    1.0000    0.0000 C   0  0  0  0  0  0  0  0  0  0  0  0
    3.7321   -0.5000    0.0000 C   0  0  0  0  0  0  0  0  0  0  0  0
    2.0000    0.5000    0.0000 C   0  0  0  0  0  0  0  0  0  0  0  0
    3.7321   -1.5000    0.0000 C   0  0  0  0  0  0  0  0  0  0  0  0
    2.8660    2.0000    0.0000 C   0  0  0  0  0  0  0  0  0  0  0  0
    2.8660   -2.0000    0.0000 C   0  0  0  0  0  0  0  0  0  0  0  0
    4.5981   -2.0000    0.0000 C   0  0  0  0  0  0  0  0  0  0  0  0
    4.5611   -0.1760    0.0000 H   0  0  0  0  0  0  0  0  0  0  0  0
    5.4081   -0.4030    0.0000 H   0  0  0  0  0  0  0  0  0  0  0  0
    5.6350    0.4440    0.0000 H   0  0  0  0  0  0  0  0  0  0  0  0
    4.6350    2.1760    0.0000 H   0  0  0  0  0  0  0  0  0  0  0  0
    3.7881    2.4030    0.0000 H   0  0  0  0  0  0  0  0  0  0  0  0
    3.5611    1.5560    0.0000 H   0  0  0  0  0  0  0  0  0  0  0  0
    6.0010    1.1900    0.0000 H   0  0  0  0  0  0  0  0  0  0  0  0
    1.6900    1.0369    0.0000 H   0  0  0  0  0  0  0  0  0  0  0  0
    1.4631    0.1900    0.0000 H   0  0  0  0  0  0  0  0  0  0  0  0
    2.3100   -0.0369    0.0000 H   0  0  0  0  0  0  0  0  0  0  0  0
    3.4030    2.3100    0.0000 H   0  0  0  0  0  0  0  0  0  0  0  0
    2.3291    2.3100    0.0000 H   0  0  0  0  0  0  0  0  0  0  0  0
    2.5560   -1.4631    0.0000 H   0  0  0  0  0  0  0  0  0  0  0  0
    2.3291   -2.3100    0.0000 H   0  0  0  0  0  0  0  0  0  0  0  0
    3.1760   -2.5369    0.0000 H   0  0  0  0  0  0  0  0  0  0  0  0
    4.2881   -2.5369    0.0000 H   0  0  0  0  0  0  0  0  0  0  0  0
    5.1350   -2.3100    0.0000 H   0  0  0  0  0  0  0  0  0  0  0  0
    4.9081   -1.4631    0.0000 H   0  0  0  0  0  0  0  0  0  0  0  0
  1  2  1  0  0  0  0
  1 19  1  0  0  0  0
  2  3  1  0  0  0  0
  2  4  1  0  0  0  0
  2  5  1  0  0  0  0
  3  6  1  0  0  0  0
  3  7  2  0  0  0  0
  4 13  1  0  0  0  0
  4 14  1  0  0  0  0
  4 15  1  0  0  0  0
  5 16  1  0  0  0  0
  5 17  1  0  0  0  0
  5 18  1  0  0  0  0
  6  8  1  0  0  0  0
  6 10  2  0  0  0  0
  7  9  2  0  0  0  0
  8 20  1  0  0  0  0
  8 21  1  0  0  0  0
  8 22  1  0  0  0  0
  9 11  1  0  0  0  0
  9 12  1  0  0  0  0
 10 23  1  0  0  0  0
 10 24  1  0  0  0  0
 11 25  1  0  0  0  0
 11 26  1  0  0  0  0
 11 27  1  0  0  0  0
 12 28  1  0  0  0  0
 12 29  1  0  0  0  0
 12 30  1  0  0  0  0
M  END
> <PUBCHEM_COMPOUND_CID>
529303

> <PUBCHEM_COMPOUND_CANONICALIZED>
1

> <PUBCHEM_CACTVS_COMPLEXITY>
246

> <PUBCHEM_CACTVS_HBOND_ACCEPTOR>
1

> <PUBCHEM_CACTVS_HBOND_DONOR>
1

> <PUBCHEM_CACTVS_ROTATABLE_BOND>
2

> <PUBCHEM_CACTVS_SUBSKEYS>
AAADceBwIAAAAAAAAAAAAAAAAAAAAAAAAAAAAAAAAAAAAAAAAAAAGgAACAAADESAgAACAAAAAgCAAgBCAAAAAAAgAAAAAAAAAAgIBAIAAQAAQAAEwAAAEAAAAAAMAAAAAAAAAAAAAAAAAAAAAAAAAAAAAA==

> <PUBCHEM_IUPAC_OPENEYE_NAME>
3-isopropenyl-2,5-dimethyl-hexa-3,4-dien-2-ol

> <PUBCHEM_IUPAC_CAS_NAME>
2,5-dimethyl-3-(1-methylethenyl)-2-hexa-3,4-dienol

> <PUBCHEM_IUPAC_NAME_MARKUP>
2,5-dimethyl-3-prop-1-en-2-ylhexa-3,4-dien-2-ol

> <PUBCHEM_IUPAC_NAME>
2,5-dimethyl-3-prop-1-en-2-ylhexa-3,4-dien-2-ol

> <PUBCHEM_IUPAC_SYSTEMATIC_NAME>
2,5-dimethyl-3-prop-1-en-2-yl-hexa-3,4-dien-2-ol

> <PUBCHEM_IUPAC_TRADITIONAL_NAME>
3-isopropenyl-2,5-dimethyl-hexa-3,4-dien-2-ol

> <PUBCHEM_IUPAC_INCHI>
InChI=1S/C11H18O/c1-8(2)7-10(9(3)4)11(5,6)12/h12H,3H2,1-2,4-6H3

> <PUBCHEM_IUPAC_INCHIKEY>
OOYJYXZAXCOHEW-UHFFFAOYSA-N

> <PUBCHEM_XLOGP3_AA>
2.9

> <PUBCHEM_EXACT_MASS>
166.135765193

> <PUBCHEM_MOLECULAR_FORMULA>
C11H18O

> <PUBCHEM_MOLECULAR_WEIGHT>
166.26

> <PUBCHEM_SMILES>
CC(=C=C(C(=C)C)C(C)(C)O)C

> <PUBCHEM_CONNECTIVITY_SMILES>
CC(=C=C(C(=C)C)C(C)(C)O)C

> <PUBCHEM_CACTVS_TPSA>
20.2

> <PUBCHEM_MONOISOTOPIC_WEIGHT>
166.135765193

> <PUBCHEM_TOTAL_CHARGE>
0

> <PUBCHEM_HEAVY_ATOM_COUNT>
12

> <PUBCHEM_ATOM_DEF_STEREO_COUNT>
0

> <PUBCHEM_ATOM_UDEF_STEREO_COUNT>
0

> <PUBCHEM_BOND_DEF_STEREO_COUNT>
0

> <PUBCHEM_BOND_UDEF_STEREO_COUNT>
0

> <PUBCHEM_ISOTOPIC_ATOM_COUNT>
0

> <PUBCHEM_COMPONENT_COUNT>
1

> <PUBCHEM_CACTVS_TAUTO_COUNT>
-1

> <PUBCHEM_COORDINATE_TYPE>
1
5
255

$$$$
