5312508
  -OEChem-05122609572D

 48 47  0     0  0  0  0  0  0999 V2000
    2.5369    2.5000    0.0000 O   0  0  0  0  0  0  0  0  0  0  0  0
    3.4030    1.0000    0.0000 O   0  0  0  0  0  0  0  0  0  0  0  0
    6.0010    2.5000    0.0000 C   0  0  0  0  0  0  0  0  0  0  0  0
    5.1350    2.0000    0.0000 C   0  0  0  0  0  0  0  0  0  0  0  0
    6.8671    2.0000    0.0000 C   0  0  0  0  0  0  0  0  0  0  0  0
    4.2690    2.5000    0.0000 C   0  0  0  0  0  0  0  0  0  0  0  0
    7.7331    2.5000    0.0000 C   0  0  0  0  0  0  0  0  0  0  0  0
    8.5991    2.0000    0.0000 C   0  0  0  0  0  0  0  0  0  0  0  0
    8.5991    1.0000    0.0000 C   0  0  0  0  0  0  0  0  0  0  0  0
    3.4030    2.0000    0.0000 C   0  0  0  0  0  0  0  0  0  0  0  0
    9.4651    0.5000    0.0000 C   0  0  0  0  0  0  0  0  0  0  0  0
    8.5991   -1.0000    0.0000 C   0  0  0  0  0  0  0  0  0  0  0  0
    9.4651   -0.5000    0.0000 C   0  0  0  0  0  0  0  0  0  0  0  0
    6.8671   -2.0000    0.0000 C   0  0  0  0  0  0  0  0  0  0  0  0
    8.5991   -2.0000    0.0000 C   0  0  0  0  0  0  0  0  0  0  0  0
    7.7331   -2.5000    0.0000 C   0  0  0  0  0  0  0  0  0  0  0  0
    6.0010   -2.5000    0.0000 C   0  0  0  0  0  0  0  0  0  0  0  0
    5.1350   -1.0000    0.0000 C   0  0  0  0  0  0  0  0  0  0  0  0
    5.1350   -2.0000    0.0000 C   0  0  0  0  0  0  0  0  0  0  0  0
    4.2690   -0.5000    0.0000 C   0  0  0  0  0  0  0  0  0  0  0  0
    6.3996    2.9750    0.0000 H   0  0  0  0  0  0  0  0  0  0  0  0
    5.6025    2.9750    0.0000 H   0  0  0  0  0  0  0  0  0  0  0  0
    4.7365    1.5251    0.0000 H   0  0  0  0  0  0  0  0  0  0  0  0
    5.5335    1.5251    0.0000 H   0  0  0  0  0  0  0  0  0  0  0  0
    6.4685    1.5251    0.0000 H   0  0  0  0  0  0  0  0  0  0  0  0
    7.2656    1.5251    0.0000 H   0  0  0  0  0  0  0  0  0  0  0  0
    4.6675    2.9750    0.0000 H   0  0  0  0  0  0  0  0  0  0  0  0
    3.8705    2.9750    0.0000 H   0  0  0  0  0  0  0  0  0  0  0  0
    7.7331    3.1200    0.0000 H   0  0  0  0  0  0  0  0  0  0  0  0
    9.1361    2.3100    0.0000 H   0  0  0  0  0  0  0  0  0  0  0  0
    7.9885    1.1077    0.0000 H   0  0  0  0  0  0  0  0  0  0  0  0
    8.3871    0.4174    0.0000 H   0  0  0  0  0  0  0  0  0  0  0  0
   10.0021    0.8100    0.0000 H   0  0  0  0  0  0  0  0  0  0  0  0
    8.3871   -0.4174    0.0000 H   0  0  0  0  0  0  0  0  0  0  0  0
    7.9885   -1.1077    0.0000 H   0  0  0  0  0  0  0  0  0  0  0  0
   10.0021   -0.8100    0.0000 H   0  0  0  0  0  0  0  0  0  0  0  0
    7.2656   -1.5251    0.0000 H   0  0  0  0  0  0  0  0  0  0  0  0
    6.4685   -1.5251    0.0000 H   0  0  0  0  0  0  0  0  0  0  0  0
    9.1361   -2.3100    0.0000 H   0  0  0  0  0  0  0  0  0  0  0  0
    7.7331   -3.1200    0.0000 H   0  0  0  0  0  0  0  0  0  0  0  0
    6.0010   -3.1200    0.0000 H   0  0  0  0  0  0  0  0  0  0  0  0
    5.7456   -1.1077    0.0000 H   0  0  0  0  0  0  0  0  0  0  0  0
    5.3471   -0.4174    0.0000 H   0  0  0  0  0  0  0  0  0  0  0  0
    4.5981   -2.3100    0.0000 H   0  0  0  0  0  0  0  0  0  0  0  0
    2.0000    2.1900    0.0000 H   0  0  0  0  0  0  0  0  0  0  0  0
    4.5790    0.0369    0.0000 H   0  0  0  0  0  0  0  0  0  0  0  0
    3.7321   -0.1900    0.0000 H   0  0  0  0  0  0  0  0  0  0  0  0
    3.9590   -1.0369    0.0000 H   0  0  0  0  0  0  0  0  0  0  0  0
  1 10  1  0  0  0  0
  1 45  1  0  0  0  0
  2 10  2  0  0  0  0
  3  4  1  0  0  0  0
  3  5  1  0  0  0  0
  3 21  1  0  0  0  0
  3 22  1  0  0  0  0
  4  6  1  0  0  0  0
  4 23  1  0  0  0  0
  4 24  1  0  0  0  0
  5  7  1  0  0  0  0
  5 25  1  0  0  0  0
  5 26  1  0  0  0  0
  6 10  1  0  0  0  0
  6 27  1  0  0  0  0
  6 28  1  0  0  0  0
  7  8  2  0  0  0  0
  7 29  1  0  0  0  0
  8  9  1  0  0  0  0
  8 30  1  0  0  0  0
  9 11  1  0  0  0  0
  9 31  1  0  0  0  0
  9 32  1  0  0  0  0
 11 13  2  0  0  0  0
 11 33  1  0  0  0  0
 12 13  1  0  0  0  0
 12 15  1  0  0  0  0
 12 34  1  0  0  0  0
 12 35  1  0  0  0  0
 13 36  1  0  0  0  0
 14 16  1  0  0  0  0
 14 17  1  0  0  0  0
 14 37  1  0  0  0  0
 14 38  1  0  0  0  0
 15 16  2  0  0  0  0
 15 39  1  0  0  0  0
 16 40  1  0  0  0  0
 17 19  2  0  0  0  0
 17 41  1  0  0  0  0
 18 19  1  0  0  0  0
 18 20  1  0  0  0  0
 18 42  1  0  0  0  0
 18 43  1  0  0  0  0
 19 44  1  0  0  0  0
 20 46  1  0  0  0  0
 20 47  1  0  0  0  0
 20 48  1  0  0  0  0
M  END
> <PUBCHEM_COMPOUND_CID>
5312508

> <PUBCHEM_COMPOUND_CANONICALIZED>
1

> <PUBCHEM_CACTVS_COMPLEXITY>
335

> <PUBCHEM_CACTVS_HBOND_ACCEPTOR>
2

> <PUBCHEM_CACTVS_HBOND_DONOR>
1

> <PUBCHEM_CACTVS_ROTATABLE_BOND>
12

> <PUBCHEM_CACTVS_SUBSKEYS>
AAADceB4MAAAAAAAAAAAAAAAAAAAAAAAAAAAAAAAAAAAAAAAAAAAGgAACAAACACAgAACCAAAAgCIACDSCAAAAAAgAAAICAEAAAgAABIAAQAAQAAEgAAIAAOISAAAAAAAAAAAAAAAAAAAAAAAAAAAAAAAAA==

> <PUBCHEM_IUPAC_OPENEYE_NAME>
(6Z,9Z,12Z,15Z)-octadeca-6,9,12,15-tetraenoic acid

> <PUBCHEM_IUPAC_CAS_NAME>
(6Z,9Z,12Z,15Z)-octadeca-6,9,12,15-tetraenoic acid

> <PUBCHEM_IUPAC_NAME_MARKUP>
(6<I>Z</I>,9<I>Z</I>,12<I>Z</I>,15<I>Z</I>)-octadeca-6,9,12,15-tetraenoic acid

> <PUBCHEM_IUPAC_NAME>
(6Z,9Z,12Z,15Z)-octadeca-6,9,12,15-tetraenoic acid

> <PUBCHEM_IUPAC_SYSTEMATIC_NAME>
(6Z,9Z,12Z,15Z)-octadeca-6,9,12,15-tetraenoic acid

> <PUBCHEM_IUPAC_TRADITIONAL_NAME>
(6Z,9Z,12Z,15Z)-octadeca-6,9,12,15-tetraenoic acid

> <PUBCHEM_IUPAC_INCHI>
InChI=1S/C18H28O2/c1-2-3-4-5-6-7-8-9-10-11-12-13-14-15-16-17-18(19)20/h3-4,6-7,9-10,12-13H,2,5,8,11,14-17H2,1H3,(H,19,20)/b4-3-,7-6-,10-9-,13-12-

> <PUBCHEM_IUPAC_INCHIKEY>
JIWBIWFOSCKQMA-LTKCOYKYSA-N

> <PUBCHEM_XLOGP3_AA>
5.2

> <PUBCHEM_EXACT_MASS>
276.208930132

> <PUBCHEM_MOLECULAR_FORMULA>
C18H28O2

> <PUBCHEM_MOLECULAR_WEIGHT>
276.4

> <PUBCHEM_SMILES>
CC/C=C\C/C=C\C/C=C\C/C=C\CCCCC(=O)O

> <PUBCHEM_CONNECTIVITY_SMILES>
CCC=CCC=CCC=CCC=CCCCCC(=O)O

> <PUBCHEM_CACTVS_TPSA>
37.3

> <PUBCHEM_MONOISOTOPIC_WEIGHT>
276.208930132

> <PUBCHEM_TOTAL_CHARGE>
0

> <PUBCHEM_HEAVY_ATOM_COUNT>
20

> <PUBCHEM_ATOM_DEF_STEREO_COUNT>
0

> <PUBCHEM_ATOM_UDEF_STEREO_COUNT>
0

> <PUBCHEM_BOND_DEF_STEREO_COUNT>
4

> <PUBCHEM_BOND_UDEF_STEREO_COUNT>
0

> <PUBCHEM_ISOTOPIC_ATOM_COUNT>
0

> <PUBCHEM_COMPONENT_COUNT>
1

> <PUBCHEM_CACTVS_TAUTO_COUNT>
-1

> <PUBCHEM_COORDINATE_TYPE>
1
5
255

$$$$
