5319706
  -OEChem-05122608312D

 53 52  0     0  0  0  0  0  0999 V2000
    2.8660   -1.8100    0.0000 O   0  0  0  0  0  0  0  0  0  0  0  0
    3.7321   -3.3100    0.0000 O   0  0  0  0  0  0  0  0  0  0  0  0
    7.1962   -2.3100    0.0000 C   0  0  0  0  0  0  0  0  0  0  0  0
    8.0622   -1.8100    0.0000 C   0  0  0  0  0  0  0  0  0  0  0  0
    6.3301   -1.8100    0.0000 C   0  0  0  0  0  0  0  0  0  0  0  0
    8.9282   -2.3100    0.0000 C   0  0  0  0  0  0  0  0  0  0  0  0
    5.4641   -2.3100    0.0000 C   0  0  0  0  0  0  0  0  0  0  0  0
    9.7942   -1.8100    0.0000 C   0  0  0  0  0  0  0  0  0  0  0  0
    4.5981   -1.8100    0.0000 C   0  0  0  0  0  0  0  0  0  0  0  0
   10.6603   -2.3100    0.0000 C   0  0  0  0  0  0  0  0  0  0  0  0
    3.7321   -2.3100    0.0000 C   0  0  0  0  0  0  0  0  0  0  0  0
   11.5263   -1.8100    0.0000 C   0  0  0  0  0  0  0  0  0  0  0  0
   11.5263   -0.8100    0.0000 C   0  0  0  0  0  0  0  0  0  0  0  0
   12.3923   -0.3100    0.0000 C   0  0  0  0  0  0  0  0  0  0  0  0
   12.3923    0.6900    0.0000 C   0  0  0  0  0  0  0  0  0  0  0  0
   11.5263    1.1900    0.0000 C   0  0  0  0  0  0  0  0  0  0  0  0
    2.0000   -2.3100    0.0000 C   0  0  0  0  0  0  0  0  0  0  0  0
   11.5263    2.1900    0.0000 C   0  0  0  0  0  0  0  0  0  0  0  0
   10.6603    2.6900    0.0000 C   0  0  0  0  0  0  0  0  0  0  0  0
    9.7942    2.1900    0.0000 C   0  0  0  0  0  0  0  0  0  0  0  0
    8.9282    2.6900    0.0000 C   0  0  0  0  0  0  0  0  0  0  0  0
    6.7976   -2.7850    0.0000 H   0  0  0  0  0  0  0  0  0  0  0  0
    7.5947   -2.7850    0.0000 H   0  0  0  0  0  0  0  0  0  0  0  0
    8.4607   -1.3351    0.0000 H   0  0  0  0  0  0  0  0  0  0  0  0
    7.6637   -1.3351    0.0000 H   0  0  0  0  0  0  0  0  0  0  0  0
    6.7287   -1.3351    0.0000 H   0  0  0  0  0  0  0  0  0  0  0  0
    5.9316   -1.3351    0.0000 H   0  0  0  0  0  0  0  0  0  0  0  0
    8.5297   -2.7850    0.0000 H   0  0  0  0  0  0  0  0  0  0  0  0
    9.3267   -2.7850    0.0000 H   0  0  0  0  0  0  0  0  0  0  0  0
    5.0656   -2.7850    0.0000 H   0  0  0  0  0  0  0  0  0  0  0  0
    5.8626   -2.7850    0.0000 H   0  0  0  0  0  0  0  0  0  0  0  0
   10.1928   -1.3351    0.0000 H   0  0  0  0  0  0  0  0  0  0  0  0
    9.3957   -1.3351    0.0000 H   0  0  0  0  0  0  0  0  0  0  0  0
    4.9966   -1.3351    0.0000 H   0  0  0  0  0  0  0  0  0  0  0  0
    4.1996   -1.3351    0.0000 H   0  0  0  0  0  0  0  0  0  0  0  0
   10.6603   -2.9300    0.0000 H   0  0  0  0  0  0  0  0  0  0  0  0
   12.0632   -2.1200    0.0000 H   0  0  0  0  0  0  0  0  0  0  0  0
   11.3142   -0.2274    0.0000 H   0  0  0  0  0  0  0  0  0  0  0  0
   10.9157   -0.9177    0.0000 H   0  0  0  0  0  0  0  0  0  0  0  0
   12.9292   -0.6200    0.0000 H   0  0  0  0  0  0  0  0  0  0  0  0
   12.9292    1.0000    0.0000 H   0  0  0  0  0  0  0  0  0  0  0  0
   10.9157    1.2977    0.0000 H   0  0  0  0  0  0  0  0  0  0  0  0
   11.3142    0.6074    0.0000 H   0  0  0  0  0  0  0  0  0  0  0  0
    1.6900   -1.7731    0.0000 H   0  0  0  0  0  0  0  0  0  0  0  0
    1.4631   -2.6200    0.0000 H   0  0  0  0  0  0  0  0  0  0  0  0
    2.3100   -2.8469    0.0000 H   0  0  0  0  0  0  0  0  0  0  0  0
   12.0632    2.5000    0.0000 H   0  0  0  0  0  0  0  0  0  0  0  0
   10.6603    3.3100    0.0000 H   0  0  0  0  0  0  0  0  0  0  0  0
    9.3957    1.7151    0.0000 H   0  0  0  0  0  0  0  0  0  0  0  0
   10.1928    1.7151    0.0000 H   0  0  0  0  0  0  0  0  0  0  0  0
    9.2382    3.2269    0.0000 H   0  0  0  0  0  0  0  0  0  0  0  0
    8.3913    3.0000    0.0000 H   0  0  0  0  0  0  0  0  0  0  0  0
    8.6182    2.1531    0.0000 H   0  0  0  0  0  0  0  0  0  0  0  0
  1 11  1  0  0  0  0
  1 17  1  0  0  0  0
  2 11  2  0  0  0  0
  3  4  1  0  0  0  0
  3  5  1  0  0  0  0
  3 22  1  0  0  0  0
  3 23  1  0  0  0  0
  4  6  1  0  0  0  0
  4 24  1  0  0  0  0
  4 25  1  0  0  0  0
  5  7  1  0  0  0  0
  5 26  1  0  0  0  0
  5 27  1  0  0  0  0
  6  8  1  0  0  0  0
  6 28  1  0  0  0  0
  6 29  1  0  0  0  0
  7  9  1  0  0  0  0
  7 30  1  0  0  0  0
  7 31  1  0  0  0  0
  8 10  1  0  0  0  0
  8 32  1  0  0  0  0
  8 33  1  0  0  0  0
  9 11  1  0  0  0  0
  9 34  1  0  0  0  0
  9 35  1  0  0  0  0
 10 12  2  0  0  0  0
 10 36  1  0  0  0  0
 12 13  1  0  0  0  0
 12 37  1  0  0  0  0
 13 14  1  0  0  0  0
 13 38  1  0  0  0  0
 13 39  1  0  0  0  0
 14 15  2  0  0  0  0
 14 40  1  0  0  0  0
 15 16  1  0  0  0  0
 15 41  1  0  0  0  0
 16 18  1  0  0  0  0
 16 42  1  0  0  0  0
 16 43  1  0  0  0  0
 17 44  1  0  0  0  0
 17 45  1  0  0  0  0
 17 46  1  0  0  0  0
 18 19  2  0  0  0  0
 18 47  1  0  0  0  0
 19 20  1  0  0  0  0
 19 48  1  0  0  0  0
 20 21  1  0  0  0  0
 20 49  1  0  0  0  0
 20 50  1  0  0  0  0
 21 51  1  0  0  0  0
 21 52  1  0  0  0  0
 21 53  1  0  0  0  0
M  END
> <PUBCHEM_COMPOUND_CID>
5319706

> <PUBCHEM_COMPOUND_CANONICALIZED>
1

> <PUBCHEM_CACTVS_COMPLEXITY>
314

> <PUBCHEM_CACTVS_HBOND_ACCEPTOR>
2

> <PUBCHEM_CACTVS_HBOND_DONOR>
0

> <PUBCHEM_CACTVS_ROTATABLE_BOND>
14

> <PUBCHEM_CACTVS_SUBSKEYS>
AAADcfB4MAAAAAAAAAAAAAAAAAAAAAAAAAAAAAAAAAAAAAAAAAAAGgAAAAAACACAgAICCAAABACIACDSCAAAAAAgAAAICAEAAAgAABIAAQAAAAAEgAAIAAOIyKCAAAAAAAAAAAAAAAAAAAAAAAAAAAAAAA==

> <PUBCHEM_IUPAC_OPENEYE_NAME>
methyl (9Z,12Z,15Z)-octadeca-9,12,15-trienoate

> <PUBCHEM_IUPAC_CAS_NAME>
(9Z,12Z,15Z)-octadeca-9,12,15-trienoic acid methyl ester

> <PUBCHEM_IUPAC_NAME_MARKUP>
methyl (9<I>Z</I>,12<I>Z</I>,15<I>Z</I>)-octadeca-9,12,15-trienoate

> <PUBCHEM_IUPAC_NAME>
methyl (9Z,12Z,15Z)-octadeca-9,12,15-trienoate

> <PUBCHEM_IUPAC_SYSTEMATIC_NAME>
methyl (9Z,12Z,15Z)-octadeca-9,12,15-trienoate

> <PUBCHEM_IUPAC_TRADITIONAL_NAME>
(9Z,12Z,15Z)-octadeca-9,12,15-trienoic acid methyl ester

> <PUBCHEM_IUPAC_INCHI>
InChI=1S/C19H32O2/c1-3-4-5-6-7-8-9-10-11-12-13-14-15-16-17-18-19(20)21-2/h4-5,7-8,10-11H,3,6,9,12-18H2,1-2H3/b5-4-,8-7-,11-10-

> <PUBCHEM_IUPAC_INCHIKEY>
DVWSXZIHSUZZKJ-YSTUJMKBSA-N

> <PUBCHEM_XLOGP3_AA>
6.2

> <PUBCHEM_EXACT_MASS>
292.240230259

> <PUBCHEM_MOLECULAR_FORMULA>
C19H32O2

> <PUBCHEM_MOLECULAR_WEIGHT>
292.5

> <PUBCHEM_SMILES>
CC/C=C\C/C=C\C/C=C\CCCCCCCC(=O)OC

> <PUBCHEM_CONNECTIVITY_SMILES>
CCC=CCC=CCC=CCCCCCCCC(=O)OC

> <PUBCHEM_CACTVS_TPSA>
26.3

> <PUBCHEM_MONOISOTOPIC_WEIGHT>
292.240230259

> <PUBCHEM_TOTAL_CHARGE>
0

> <PUBCHEM_HEAVY_ATOM_COUNT>
21

> <PUBCHEM_ATOM_DEF_STEREO_COUNT>
0

> <PUBCHEM_ATOM_UDEF_STEREO_COUNT>
0

> <PUBCHEM_BOND_DEF_STEREO_COUNT>
3

> <PUBCHEM_BOND_UDEF_STEREO_COUNT>
0

> <PUBCHEM_ISOTOPIC_ATOM_COUNT>
0

> <PUBCHEM_COMPONENT_COUNT>
1

> <PUBCHEM_CACTVS_TAUTO_COUNT>
-1

> <PUBCHEM_COORDINATE_TYPE>
1
5
255

$$$$
