534566
  -OEChem-05122609322D

 17 17  0     1  0  0  0  0  0999 V2000
    3.7071   -1.6901    0.0000 O   0  0  0  0  0  0  0  0  0  0  0  0
    3.0000    0.0170    0.0000 C   0  0  3  0  0  0  0  0  0  0  0  0
    2.0000    0.0170    0.0000 C   0  0  0  0  0  0  0  0  0  0  0  0
    2.0000   -0.9830    0.0000 C   0  0  0  0  0  0  0  0  0  0  0  0
    3.0000   -0.9830    0.0000 C   0  0  0  0  0  0  0  0  0  0  0  0
    3.7071    0.7241    0.0000 C   0  0  0  0  0  0  0  0  0  0  0  0
    3.4483    1.6901    0.0000 C   0  0  0  0  0  0  0  0  0  0  0  0
    2.7627    0.5898    0.0000 H   0  0  0  0  0  0  0  0  0  0  0  0
    2.0000    0.6370    0.0000 H   0  0  0  0  0  0  0  0  0  0  0  0
    1.3800    0.0170    0.0000 H   0  0  0  0  0  0  0  0  0  0  0  0
    1.3800   -0.9830    0.0000 H   0  0  0  0  0  0  0  0  0  0  0  0
    2.0000   -1.6030    0.0000 H   0  0  0  0  0  0  0  0  0  0  0  0
    4.0627    0.2163    0.0000 H   0  0  0  0  0  0  0  0  0  0  0  0
    4.2690    0.9862    0.0000 H   0  0  0  0  0  0  0  0  0  0  0  0
    4.0472    1.8505    0.0000 H   0  0  0  0  0  0  0  0  0  0  0  0
    3.2878    2.2889    0.0000 H   0  0  0  0  0  0  0  0  0  0  0  0
    2.8494    1.5296    0.0000 H   0  0  0  0  0  0  0  0  0  0  0  0
  1  5  2  0  0  0  0
  2  3  1  0  0  0  0
  2  5  1  0  0  0  0
  2  6  1  0  0  0  0
  2  8  1  0  0  0  0
  3  4  1  0  0  0  0
  3  9  1  0  0  0  0
  3 10  1  0  0  0  0
  4  5  1  0  0  0  0
  4 11  1  0  0  0  0
  4 12  1  0  0  0  0
  6  7  1  0  0  0  0
  6 13  1  0  0  0  0
  6 14  1  0  0  0  0
  7 15  1  0  0  0  0
  7 16  1  0  0  0  0
  7 17  1  0  0  0  0
M  END
> <PUBCHEM_COMPOUND_CID>
534566

> <PUBCHEM_COMPOUND_CANONICALIZED>
1

> <PUBCHEM_CACTVS_COMPLEXITY>
86.2

> <PUBCHEM_CACTVS_HBOND_ACCEPTOR>
1

> <PUBCHEM_CACTVS_HBOND_DONOR>
0

> <PUBCHEM_CACTVS_ROTATABLE_BOND>
1

> <PUBCHEM_CACTVS_SUBSKEYS>
AAADccBgIAAAAAAAAAAAAAAAAABgAAAAAAAAAAAAAAAAAAAAAAAAGgAAAAAADQSAgAACAAAAAAAIAIAQAAAAAAAAAAAAAAEAAAAAABIAAAAAAAAAAAAAAAEICAAKAAAAAAAAAAAAAAAAAAAAAAAAAAAAAA==

> <PUBCHEM_IUPAC_OPENEYE_NAME>
2-ethylcyclobutanone

> <PUBCHEM_IUPAC_CAS_NAME>
2-ethyl-1-cyclobutanone

> <PUBCHEM_IUPAC_NAME_MARKUP>
2-ethylcyclobutan-1-one

> <PUBCHEM_IUPAC_NAME>
2-ethylcyclobutan-1-one

> <PUBCHEM_IUPAC_SYSTEMATIC_NAME>
2-ethylcyclobutan-1-one

> <PUBCHEM_IUPAC_TRADITIONAL_NAME>
2-ethylcyclobutanone

> <PUBCHEM_IUPAC_INCHI>
InChI=1S/C6H10O/c1-2-5-3-4-6(5)7/h5H,2-4H2,1H3

> <PUBCHEM_IUPAC_INCHIKEY>
FZZIOLFULBXCKD-UHFFFAOYSA-N

> <PUBCHEM_XLOGP3_AA>
1

> <PUBCHEM_EXACT_MASS>
98.073164938

> <PUBCHEM_MOLECULAR_FORMULA>
C6H10O

> <PUBCHEM_MOLECULAR_WEIGHT>
98.14

> <PUBCHEM_SMILES>
CCC1CCC1=O

> <PUBCHEM_CONNECTIVITY_SMILES>
CCC1CCC1=O

> <PUBCHEM_CACTVS_TPSA>
17.1

> <PUBCHEM_MONOISOTOPIC_WEIGHT>
98.073164938

> <PUBCHEM_TOTAL_CHARGE>
0

> <PUBCHEM_HEAVY_ATOM_COUNT>
7

> <PUBCHEM_ATOM_DEF_STEREO_COUNT>
0

> <PUBCHEM_ATOM_UDEF_STEREO_COUNT>
1

> <PUBCHEM_BOND_DEF_STEREO_COUNT>
0

> <PUBCHEM_BOND_UDEF_STEREO_COUNT>
0

> <PUBCHEM_ISOTOPIC_ATOM_COUNT>
0

> <PUBCHEM_COMPONENT_COUNT>
1

> <PUBCHEM_CACTVS_TAUTO_COUNT>
-1

> <PUBCHEM_COORDINATE_TYPE>
1
5
255

> <PUBCHEM_BONDANNOTATIONS>
2  6  3

$$$$
