5352860
  -OEChem-08032615142D

 61 60  0     0  0  0  0  0  0999 V2000
   12.0632   -2.2500    0.0000 O   0  0  0  0  0  0  0  0  0  0  0  0
   11.1972   -3.7500    0.0000 O   0  0  0  0  0  0  0  0  0  0  0  0
    7.7331   -2.7500    0.0000 C   0  0  0  0  0  0  0  0  0  0  0  0
    6.8671   -2.2500    0.0000 C   0  0  0  0  0  0  0  0  0  0  0  0
    8.5991   -2.2500    0.0000 C   0  0  0  0  0  0  0  0  0  0  0  0
    6.0010   -2.7500    0.0000 C   0  0  0  0  0  0  0  0  0  0  0  0
    9.4651   -2.7500    0.0000 C   0  0  0  0  0  0  0  0  0  0  0  0
    5.1350   -2.2500    0.0000 C   0  0  0  0  0  0  0  0  0  0  0  0
   10.3312   -2.2500    0.0000 C   0  0  0  0  0  0  0  0  0  0  0  0
    4.2690   -2.7500    0.0000 C   0  0  0  0  0  0  0  0  0  0  0  0
    3.4030    1.7500    0.0000 C   0  0  0  0  0  0  0  0  0  0  0  0
    4.2690    2.2500    0.0000 C   0  0  0  0  0  0  0  0  0  0  0  0
   11.1972   -2.7500    0.0000 C   0  0  0  0  0  0  0  0  0  0  0  0
    3.4030    0.7500    0.0000 C   0  0  0  0  0  0  0  0  0  0  0  0
    4.2690    3.2500    0.0000 C   0  0  0  0  0  0  0  0  0  0  0  0
    3.4030   -2.2500    0.0000 C   0  0  0  0  0  0  0  0  0  0  0  0
    3.4030   -1.2500    0.0000 C   0  0  0  0  0  0  0  0  0  0  0  0
    2.5369    0.2500    0.0000 C   0  0  0  0  0  0  0  0  0  0  0  0
    2.5369   -0.7500    0.0000 C   0  0  0  0  0  0  0  0  0  0  0  0
   12.9292   -2.7500    0.0000 C   0  0  0  0  0  0  0  0  0  0  0  0
    5.1350    3.7500    0.0000 C   0  0  0  0  0  0  0  0  0  0  0  0
   13.7953   -2.2500    0.0000 C   0  0  0  0  0  0  0  0  0  0  0  0
   12.9292   -3.7500    0.0000 C   0  0  0  0  0  0  0  0  0  0  0  0
    7.3346   -3.2250    0.0000 H   0  0  0  0  0  0  0  0  0  0  0  0
    8.1316   -3.2250    0.0000 H   0  0  0  0  0  0  0  0  0  0  0  0
    7.2656   -1.7751    0.0000 H   0  0  0  0  0  0  0  0  0  0  0  0
    6.4685   -1.7751    0.0000 H   0  0  0  0  0  0  0  0  0  0  0  0
    8.9976   -1.7751    0.0000 H   0  0  0  0  0  0  0  0  0  0  0  0
    8.2006   -1.7751    0.0000 H   0  0  0  0  0  0  0  0  0  0  0  0
    5.6025   -3.2250    0.0000 H   0  0  0  0  0  0  0  0  0  0  0  0
    6.3996   -3.2250    0.0000 H   0  0  0  0  0  0  0  0  0  0  0  0
    9.0666   -3.2250    0.0000 H   0  0  0  0  0  0  0  0  0  0  0  0
    9.8637   -3.2250    0.0000 H   0  0  0  0  0  0  0  0  0  0  0  0
    5.5335   -1.7751    0.0000 H   0  0  0  0  0  0  0  0  0  0  0  0
    4.7365   -1.7751    0.0000 H   0  0  0  0  0  0  0  0  0  0  0  0
   10.7297   -1.7751    0.0000 H   0  0  0  0  0  0  0  0  0  0  0  0
    9.9326   -1.7751    0.0000 H   0  0  0  0  0  0  0  0  0  0  0  0
    4.2690   -3.3700    0.0000 H   0  0  0  0  0  0  0  0  0  0  0  0
    3.1909    2.3326    0.0000 H   0  0  0  0  0  0  0  0  0  0  0  0
    2.7924    1.6423    0.0000 H   0  0  0  0  0  0  0  0  0  0  0  0
    4.4810    1.6674    0.0000 H   0  0  0  0  0  0  0  0  0  0  0  0
    4.8796    2.3577    0.0000 H   0  0  0  0  0  0  0  0  0  0  0  0
    3.6150    0.1674    0.0000 H   0  0  0  0  0  0  0  0  0  0  0  0
    4.0135    0.8577    0.0000 H   0  0  0  0  0  0  0  0  0  0  0  0
    4.0569    3.8326    0.0000 H   0  0  0  0  0  0  0  0  0  0  0  0
    3.6584    3.1423    0.0000 H   0  0  0  0  0  0  0  0  0  0  0  0
    2.8660   -2.5600    0.0000 H   0  0  0  0  0  0  0  0  0  0  0  0
    4.0135   -1.3577    0.0000 H   0  0  0  0  0  0  0  0  0  0  0  0
    3.6150   -0.6674    0.0000 H   0  0  0  0  0  0  0  0  0  0  0  0
    2.0000    0.5600    0.0000 H   0  0  0  0  0  0  0  0  0  0  0  0
    2.0000   -1.0600    0.0000 H   0  0  0  0  0  0  0  0  0  0  0  0
   12.3923   -3.0600    0.0000 H   0  0  0  0  0  0  0  0  0  0  0  0
    5.4450    3.2131    0.0000 H   0  0  0  0  0  0  0  0  0  0  0  0
    5.6720    4.0600    0.0000 H   0  0  0  0  0  0  0  0  0  0  0  0
    4.8250    4.2869    0.0000 H   0  0  0  0  0  0  0  0  0  0  0  0
   14.1053   -2.7869    0.0000 H   0  0  0  0  0  0  0  0  0  0  0  0
   14.3322   -1.9400    0.0000 H   0  0  0  0  0  0  0  0  0  0  0  0
   13.4853   -1.7131    0.0000 H   0  0  0  0  0  0  0  0  0  0  0  0
   12.3092   -3.7500    0.0000 H   0  0  0  0  0  0  0  0  0  0  0  0
   12.9292   -4.3700    0.0000 H   0  0  0  0  0  0  0  0  0  0  0  0
   13.5492   -3.7500    0.0000 H   0  0  0  0  0  0  0  0  0  0  0  0
  1 13  1  0  0  0  0
  1 20  1  0  0  0  0
  2 13  2  0  0  0  0
  3  4  1  0  0  0  0
  3  5  1  0  0  0  0
  3 24  1  0  0  0  0
  3 25  1  0  0  0  0
  4  6  1  0  0  0  0
  4 26  1  0  0  0  0
  4 27  1  0  0  0  0
  5  7  1  0  0  0  0
  5 28  1  0  0  0  0
  5 29  1  0  0  0  0
  6  8  1  0  0  0  0
  6 30  1  0  0  0  0
  6 31  1  0  0  0  0
  7  9  1  0  0  0  0
  7 32  1  0  0  0  0
  7 33  1  0  0  0  0
  8 10  1  0  0  0  0
  8 34  1  0  0  0  0
  8 35  1  0  0  0  0
  9 13  1  0  0  0  0
  9 36  1  0  0  0  0
  9 37  1  0  0  0  0
 10 16  2  0  0  0  0
 10 38  1  0  0  0  0
 11 12  1  0  0  0  0
 11 14  1  0  0  0  0
 11 39  1  0  0  0  0
 11 40  1  0  0  0  0
 12 15  1  0  0  0  0
 12 41  1  0  0  0  0
 12 42  1  0  0  0  0
 14 18  1  0  0  0  0
 14 43  1  0  0  0  0
 14 44  1  0  0  0  0
 15 21  1  0  0  0  0
 15 45  1  0  0  0  0
 15 46  1  0  0  0  0
 16 17  1  0  0  0  0
 16 47  1  0  0  0  0
 17 19  1  0  0  0  0
 17 48  1  0  0  0  0
 17 49  1  0  0  0  0
 18 19  2  0  0  0  0
 18 50  1  0  0  0  0
 19 51  1  0  0  0  0
 20 22  1  0  0  0  0
 20 23  1  0  0  0  0
 20 52  1  0  0  0  0
 21 53  1  0  0  0  0
 21 54  1  0  0  0  0
 21 55  1  0  0  0  0
 22 56  1  0  0  0  0
 22 57  1  0  0  0  0
 22 58  1  0  0  0  0
 23 59  1  0  0  0  0
 23 60  1  0  0  0  0
 23 61  1  0  0  0  0
M  END
> <PUBCHEM_COMPOUND_CID>
5352860

> <PUBCHEM_COMPOUND_CANONICALIZED>
1

> <PUBCHEM_CACTVS_COMPLEXITY>
316

> <PUBCHEM_CACTVS_HBOND_ACCEPTOR>
2

> <PUBCHEM_CACTVS_HBOND_DONOR>
0

> <PUBCHEM_CACTVS_ROTATABLE_BOND>
16

> <PUBCHEM_CACTVS_SUBSKEYS>
AAADcfB4MAAAAAAAAAAAAAAAAAAAAAAAAAAAAAAAAAAAAAAAAAAAGgAAAAAACBSggAICCAAABACIACDSCAAAAAAgAAAICAEAAAgAABIAAQACAAAEgAAIAAOIyKCAAAAAAAAAAAAAAAAAAAAAAAAAAAAAAA==

> <PUBCHEM_IUPAC_OPENEYE_NAME>
isopropyl (9Z,12Z)-octadeca-9,12-dienoate

> <PUBCHEM_IUPAC_CAS_NAME>
(9Z,12Z)-octadeca-9,12-dienoic acid propan-2-yl ester

> <PUBCHEM_IUPAC_NAME_MARKUP>
propan-2-yl (9<I>Z</I>,12<I>Z</I>)-octadeca-9,12-dienoate

> <PUBCHEM_IUPAC_NAME>
propan-2-yl (9Z,12Z)-octadeca-9,12-dienoate

> <PUBCHEM_IUPAC_SYSTEMATIC_NAME>
propan-2-yl (9Z,12Z)-octadeca-9,12-dienoate

> <PUBCHEM_IUPAC_TRADITIONAL_NAME>
(9Z,12Z)-octadeca-9,12-dienoic acid isopropyl ester

> <PUBCHEM_IUPAC_INCHI>
InChI=1S/C21H38O2/c1-4-5-6-7-8-9-10-11-12-13-14-15-16-17-18-19-21(22)23-20(2)3/h8-9,11-12,20H,4-7,10,13-19H2,1-3H3/b9-8-,12-11-

> <PUBCHEM_IUPAC_INCHIKEY>
XEIOPEQGDSYOIH-MURFETPASA-N

> <PUBCHEM_XLOGP3_AA>
7.7

> <PUBCHEM_EXACT_MASS>
322.287180451

> <PUBCHEM_MOLECULAR_FORMULA>
C21H38O2

> <PUBCHEM_MOLECULAR_WEIGHT>
322.5

> <PUBCHEM_SMILES>
CCCCC/C=C\C/C=C\CCCCCCCC(=O)OC(C)C

> <PUBCHEM_CONNECTIVITY_SMILES>
CCCCCC=CCC=CCCCCCCCC(=O)OC(C)C

> <PUBCHEM_CACTVS_TPSA>
26.3

> <PUBCHEM_MONOISOTOPIC_WEIGHT>
322.287180451

> <PUBCHEM_TOTAL_CHARGE>
0

> <PUBCHEM_HEAVY_ATOM_COUNT>
23

> <PUBCHEM_ATOM_DEF_STEREO_COUNT>
0

> <PUBCHEM_ATOM_UDEF_STEREO_COUNT>
0

> <PUBCHEM_BOND_DEF_STEREO_COUNT>
2

> <PUBCHEM_BOND_UDEF_STEREO_COUNT>
0

> <PUBCHEM_ISOTOPIC_ATOM_COUNT>
0

> <PUBCHEM_COMPONENT_COUNT>
1

> <PUBCHEM_CACTVS_TAUTO_COUNT>
-1

> <PUBCHEM_COORDINATE_TYPE>
1
5
255

$$$$
