5352978
  -OEChem-05122610002D

 59 58  0     0  0  0  0  0  0999 V2000
    2.8660    0.4400    0.0000 O   0  0  0  0  0  0  0  0  0  0  0  0
    3.7320   -1.0600    0.0000 O   0  0  0  0  0  0  0  0  0  0  0  0
    5.4641   -0.0600    0.0000 C   0  0  0  0  0  0  0  0  0  0  0  0
    8.0622    0.4400    0.0000 C   0  0  0  0  0  0  0  0  0  0  0  0
    4.5981    0.4400    0.0000 C   0  0  0  0  0  0  0  0  0  0  0  0
    6.3301    0.4400    0.0000 C   0  0  0  0  0  0  0  0  0  0  0  0
   10.6603   -0.0600    0.0000 C   0  0  0  0  0  0  0  0  0  0  0  0
    7.1962   -0.0600    0.0000 C   0  0  0  0  0  0  0  0  0  0  0  0
   13.2583    0.4400    0.0000 C   0  0  0  0  0  0  0  0  0  0  0  0
    8.9282   -0.0600    0.0000 C   0  0  0  0  0  0  0  0  0  0  0  0
   15.8564   -0.0600    0.0000 C   0  0  0  0  0  0  0  0  0  0  0  0
    9.7942    0.4400    0.0000 C   0  0  0  0  0  0  0  0  0  0  0  0
   11.5263    0.4400    0.0000 C   0  0  0  0  0  0  0  0  0  0  0  0
   12.3923   -0.0600    0.0000 C   0  0  0  0  0  0  0  0  0  0  0  0
   18.4545    0.4400    0.0000 C   0  0  0  0  0  0  0  0  0  0  0  0
   14.1244   -0.0600    0.0000 C   0  0  0  0  0  0  0  0  0  0  0  0
   14.9904    0.4400    0.0000 C   0  0  0  0  0  0  0  0  0  0  0  0
   16.7224    0.4400    0.0000 C   0  0  0  0  0  0  0  0  0  0  0  0
   17.5885   -0.0600    0.0000 C   0  0  0  0  0  0  0  0  0  0  0  0
   19.3205   -0.0600    0.0000 C   0  0  0  0  0  0  0  0  0  0  0  0
    3.7320   -0.0600    0.0000 C   0  0  0  0  0  0  0  0  0  0  0  0
   21.0526   -0.0600    0.0000 C   0  0  0  0  0  0  0  0  0  0  0  0
   20.1865    0.4400    0.0000 C   0  0  0  0  0  0  0  0  0  0  0  0
   21.9186    0.4400    0.0000 C   0  0  0  0  0  0  0  0  0  0  0  0
    2.0000   -0.0600    0.0000 C   0  0  0  0  0  0  0  0  0  0  0  0
    5.0656   -0.5349    0.0000 H   0  0  0  0  0  0  0  0  0  0  0  0
    5.8626   -0.5349    0.0000 H   0  0  0  0  0  0  0  0  0  0  0  0
    8.4607    0.9149    0.0000 H   0  0  0  0  0  0  0  0  0  0  0  0
    7.6636    0.9149    0.0000 H   0  0  0  0  0  0  0  0  0  0  0  0
    4.9966    0.9149    0.0000 H   0  0  0  0  0  0  0  0  0  0  0  0
    4.1996    0.9149    0.0000 H   0  0  0  0  0  0  0  0  0  0  0  0
    6.3301    1.0600    0.0000 H   0  0  0  0  0  0  0  0  0  0  0  0
   10.2617   -0.5349    0.0000 H   0  0  0  0  0  0  0  0  0  0  0  0
   11.0588   -0.5349    0.0000 H   0  0  0  0  0  0  0  0  0  0  0  0
    7.1962   -0.6800    0.0000 H   0  0  0  0  0  0  0  0  0  0  0  0
   13.6569    0.9149    0.0000 H   0  0  0  0  0  0  0  0  0  0  0  0
   12.8598    0.9149    0.0000 H   0  0  0  0  0  0  0  0  0  0  0  0
    8.9282   -0.6800    0.0000 H   0  0  0  0  0  0  0  0  0  0  0  0
   15.4579   -0.5349    0.0000 H   0  0  0  0  0  0  0  0  0  0  0  0
   16.2549   -0.5349    0.0000 H   0  0  0  0  0  0  0  0  0  0  0  0
    9.7942    1.0600    0.0000 H   0  0  0  0  0  0  0  0  0  0  0  0
   11.5263    1.0600    0.0000 H   0  0  0  0  0  0  0  0  0  0  0  0
   12.3923   -0.6800    0.0000 H   0  0  0  0  0  0  0  0  0  0  0  0
   18.8530    0.9149    0.0000 H   0  0  0  0  0  0  0  0  0  0  0  0
   18.0560    0.9149    0.0000 H   0  0  0  0  0  0  0  0  0  0  0  0
   14.1244   -0.6800    0.0000 H   0  0  0  0  0  0  0  0  0  0  0  0
   14.9904    1.0600    0.0000 H   0  0  0  0  0  0  0  0  0  0  0  0
   16.7224    1.0600    0.0000 H   0  0  0  0  0  0  0  0  0  0  0  0
   17.5885   -0.6800    0.0000 H   0  0  0  0  0  0  0  0  0  0  0  0
   19.3205   -0.6800    0.0000 H   0  0  0  0  0  0  0  0  0  0  0  0
   20.6540   -0.5349    0.0000 H   0  0  0  0  0  0  0  0  0  0  0  0
   21.4511   -0.5349    0.0000 H   0  0  0  0  0  0  0  0  0  0  0  0
   20.1865    1.0600    0.0000 H   0  0  0  0  0  0  0  0  0  0  0  0
   22.2286   -0.0969    0.0000 H   0  0  0  0  0  0  0  0  0  0  0  0
   22.4555    0.7500    0.0000 H   0  0  0  0  0  0  0  0  0  0  0  0
   21.6086    0.9769    0.0000 H   0  0  0  0  0  0  0  0  0  0  0  0
    1.6900    0.4769    0.0000 H   0  0  0  0  0  0  0  0  0  0  0  0
    1.4631   -0.3700    0.0000 H   0  0  0  0  0  0  0  0  0  0  0  0
    2.3100   -0.5969    0.0000 H   0  0  0  0  0  0  0  0  0  0  0  0
  1 21  1  0  0  0  0
  1 25  1  0  0  0  0
  2 21  2  0  0  0  0
  3  5  1  0  0  0  0
  3  6  1  0  0  0  0
  3 26  1  0  0  0  0
  3 27  1  0  0  0  0
  4  8  1  0  0  0  0
  4 10  1  0  0  0  0
  4 28  1  0  0  0  0
  4 29  1  0  0  0  0
  5 21  1  0  0  0  0
  5 30  1  0  0  0  0
  5 31  1  0  0  0  0
  6  8  2  0  0  0  0
  6 32  1  0  0  0  0
  7 12  1  0  0  0  0
  7 13  1  0  0  0  0
  7 33  1  0  0  0  0
  7 34  1  0  0  0  0
  8 35  1  0  0  0  0
  9 14  1  0  0  0  0
  9 16  1  0  0  0  0
  9 36  1  0  0  0  0
  9 37  1  0  0  0  0
 10 12  2  0  0  0  0
 10 38  1  0  0  0  0
 11 17  1  0  0  0  0
 11 18  1  0  0  0  0
 11 39  1  0  0  0  0
 11 40  1  0  0  0  0
 12 41  1  0  0  0  0
 13 14  2  0  0  0  0
 13 42  1  0  0  0  0
 14 43  1  0  0  0  0
 15 19  1  0  0  0  0
 15 20  1  0  0  0  0
 15 44  1  0  0  0  0
 15 45  1  0  0  0  0
 16 17  2  0  0  0  0
 16 46  1  0  0  0  0
 17 47  1  0  0  0  0
 18 19  2  0  0  0  0
 18 48  1  0  0  0  0
 19 49  1  0  0  0  0
 20 23  2  0  0  0  0
 20 50  1  0  0  0  0
 22 23  1  0  0  0  0
 22 24  1  0  0  0  0
 22 51  1  0  0  0  0
 22 52  1  0  0  0  0
 23 53  1  0  0  0  0
 24 54  1  0  0  0  0
 24 55  1  0  0  0  0
 24 56  1  0  0  0  0
 25 57  1  0  0  0  0
 25 58  1  0  0  0  0
 25 59  1  0  0  0  0
M  END
> <PUBCHEM_COMPOUND_CID>
5352978

> <PUBCHEM_COMPOUND_CANONICALIZED>
1

> <PUBCHEM_CACTVS_COMPLEXITY>
476

> <PUBCHEM_CACTVS_HBOND_ACCEPTOR>
2

> <PUBCHEM_CACTVS_HBOND_DONOR>
0

> <PUBCHEM_CACTVS_ROTATABLE_BOND>
15

> <PUBCHEM_CACTVS_SUBSKEYS>
AAADcfB4MAAAAAAAAAAAAAAAAAAAAAAAAAAAAAAAAAAAAAAAAAAAGgAAAAAACACAgAICCAAABACIACDSCAAAAAAgAAAICAEAAAgAABAAAQAAAAAEgAAIAAIAAAAAAAAAAAAAAAAAAAAAAAAAAAAAAAAAAA==

> <PUBCHEM_IUPAC_OPENEYE_NAME>
methyl (4E,7E,10E,13E,16E,19E)-docosa-4,7,10,13,16,19-hexaenoate

> <PUBCHEM_IUPAC_CAS_NAME>
(4E,7E,10E,13E,16E,19E)-docosa-4,7,10,13,16,19-hexaenoic acid methyl ester

> <PUBCHEM_IUPAC_NAME_MARKUP>
methyl (4<I>E</I>,7<I>E</I>,10<I>E</I>,13<I>E</I>,16<I>E</I>,19<I>E</I>)-docosa-4,7,10,13,16,19-hexaenoate

> <PUBCHEM_IUPAC_NAME>
methyl (4E,7E,10E,13E,16E,19E)-docosa-4,7,10,13,16,19-hexaenoate

> <PUBCHEM_IUPAC_SYSTEMATIC_NAME>
methyl (4E,7E,10E,13E,16E,19E)-docosa-4,7,10,13,16,19-hexaenoate

> <PUBCHEM_IUPAC_TRADITIONAL_NAME>
(4E,7E,10E,13E,16E,19E)-docosa-4,7,10,13,16,19-hexaenoic acid methyl ester

> <PUBCHEM_IUPAC_INCHI>
InChI=1S/C23H34O2/c1-3-4-5-6-7-8-9-10-11-12-13-14-15-16-17-18-19-20-21-22-23(24)25-2/h4-5,7-8,10-11,13-14,16-17,19-20H,3,6,9,12,15,18,21-22H2,1-2H3/b5-4+,8-7+,11-10+,14-13+,17-16+,20-19+

> <PUBCHEM_IUPAC_INCHIKEY>
VCDLWFYODNTQOT-DMGWNJAXSA-N

> <PUBCHEM_XLOGP3_AA>
6.5

> <PUBCHEM_EXACT_MASS>
342.255880323

> <PUBCHEM_MOLECULAR_FORMULA>
C23H34O2

> <PUBCHEM_MOLECULAR_WEIGHT>
342.5

> <PUBCHEM_SMILES>
CC/C=C/C/C=C/C/C=C/C/C=C/C/C=C/C/C=C/CCC(=O)OC

> <PUBCHEM_CONNECTIVITY_SMILES>
CCC=CCC=CCC=CCC=CCC=CCC=CCCC(=O)OC

> <PUBCHEM_CACTVS_TPSA>
26.3

> <PUBCHEM_MONOISOTOPIC_WEIGHT>
342.255880323

> <PUBCHEM_TOTAL_CHARGE>
0

> <PUBCHEM_HEAVY_ATOM_COUNT>
25

> <PUBCHEM_ATOM_DEF_STEREO_COUNT>
0

> <PUBCHEM_ATOM_UDEF_STEREO_COUNT>
0

> <PUBCHEM_BOND_DEF_STEREO_COUNT>
6

> <PUBCHEM_BOND_UDEF_STEREO_COUNT>
0

> <PUBCHEM_ISOTOPIC_ATOM_COUNT>
0

> <PUBCHEM_COMPONENT_COUNT>
1

> <PUBCHEM_CACTVS_TAUTO_COUNT>
-1

> <PUBCHEM_COORDINATE_TYPE>
1
5
255

$$$$
