5352492
  -OEChem-05122609522D

 26 25  0     0  0  0  0  0  0999 V2000
    8.0622    1.4400    0.0000 O   0  0  0  0  0  0  0  0  0  0  0  0
    2.8660   -0.5600    0.0000 C   0  0  0  0  0  0  0  0  0  0  0  0
    3.7320   -0.0600    0.0000 C   0  0  0  0  0  0  0  0  0  0  0  0
    2.8660   -1.5600    0.0000 C   0  0  0  0  0  0  0  0  0  0  0  0
    3.7320    0.9400    0.0000 C   0  0  0  0  0  0  0  0  0  0  0  0
    5.4641    0.9400    0.0000 C   0  0  0  0  0  0  0  0  0  0  0  0
    2.0000   -2.0600    0.0000 C   0  0  0  0  0  0  0  0  0  0  0  0
    4.5981    1.4400    0.0000 C   0  0  0  0  0  0  0  0  0  0  0  0
    6.3301    1.4400    0.0000 C   0  0  0  0  0  0  0  0  0  0  0  0
    7.1962    0.9400    0.0000 C   0  0  0  0  0  0  0  0  0  0  0  0
    2.6540    0.0226    0.0000 H   0  0  0  0  0  0  0  0  0  0  0  0
    2.2554   -0.6677    0.0000 H   0  0  0  0  0  0  0  0  0  0  0  0
    3.9441   -0.6426    0.0000 H   0  0  0  0  0  0  0  0  0  0  0  0
    4.3426    0.0477    0.0000 H   0  0  0  0  0  0  0  0  0  0  0  0
    3.0781   -2.1426    0.0000 H   0  0  0  0  0  0  0  0  0  0  0  0
    3.4766   -1.4523    0.0000 H   0  0  0  0  0  0  0  0  0  0  0  0
    3.1951    1.2500    0.0000 H   0  0  0  0  0  0  0  0  0  0  0  0
    5.0656    0.4651    0.0000 H   0  0  0  0  0  0  0  0  0  0  0  0
    5.8626    0.4651    0.0000 H   0  0  0  0  0  0  0  0  0  0  0  0
    1.6900   -1.5231    0.0000 H   0  0  0  0  0  0  0  0  0  0  0  0
    1.4631   -2.3700    0.0000 H   0  0  0  0  0  0  0  0  0  0  0  0
    2.3100   -2.5969    0.0000 H   0  0  0  0  0  0  0  0  0  0  0  0
    4.5981    2.0600    0.0000 H   0  0  0  0  0  0  0  0  0  0  0  0
    6.7287    1.9150    0.0000 H   0  0  0  0  0  0  0  0  0  0  0  0
    5.9316    1.9150    0.0000 H   0  0  0  0  0  0  0  0  0  0  0  0
    7.1962    0.3200    0.0000 H   0  0  0  0  0  0  0  0  0  0  0  0
  1 10  2  0  0  0  0
  2  3  1  0  0  0  0
  2  4  1  0  0  0  0
  2 11  1  0  0  0  0
  2 12  1  0  0  0  0
  3  5  1  0  0  0  0
  3 13  1  0  0  0  0
  3 14  1  0  0  0  0
  4  7  1  0  0  0  0
  4 15  1  0  0  0  0
  4 16  1  0  0  0  0
  5  8  2  0  0  0  0
  5 17  1  0  0  0  0
  6  8  1  0  0  0  0
  6  9  1  0  0  0  0
  6 18  1  0  0  0  0
  6 19  1  0  0  0  0
  7 20  1  0  0  0  0
  7 21  1  0  0  0  0
  7 22  1  0  0  0  0
  8 23  1  0  0  0  0
  9 10  1  0  0  0  0
  9 24  1  0  0  0  0
  9 25  1  0  0  0  0
 10 26  1  0  0  0  0
M  END
> <PUBCHEM_COMPOUND_CID>
5352492

> <PUBCHEM_COMPOUND_CANONICALIZED>
1

> <PUBCHEM_CACTVS_COMPLEXITY>
94.9

> <PUBCHEM_CACTVS_HBOND_ACCEPTOR>
1

> <PUBCHEM_CACTVS_HBOND_DONOR>
0

> <PUBCHEM_CACTVS_ROTATABLE_BOND>
6

> <PUBCHEM_CACTVS_SUBSKEYS>
AAADceBwIAAAAAAAAAAAAAAAAAAAAAAAAAAAAAAAAAAAAAAAAAAAGgAAAAAACACggAICAAAAAACIAChSgAAAAAAgAAAICAEAAAgAABIAAQAAAAAAgAAIAAIAAAAAAAAAAAAAAAAAAAAAAAAAAAAAAAAAAA==

> <PUBCHEM_IUPAC_OPENEYE_NAME>
(Z)-non-4-enal

> <PUBCHEM_IUPAC_CAS_NAME>
(Z)-4-nonenal

> <PUBCHEM_IUPAC_NAME_MARKUP>
(<I>Z</I>)-non-4-enal

> <PUBCHEM_IUPAC_NAME>
(Z)-non-4-enal

> <PUBCHEM_IUPAC_SYSTEMATIC_NAME>
(Z)-non-4-enal

> <PUBCHEM_IUPAC_TRADITIONAL_NAME>
(Z)-non-4-enal

> <PUBCHEM_IUPAC_INCHI>
InChI=1S/C9H16O/c1-2-3-4-5-6-7-8-9-10/h5-6,9H,2-4,7-8H2,1H3/b6-5-

> <PUBCHEM_IUPAC_INCHIKEY>
QPULDJYQYDGZEI-WAYWQWQTSA-N

> <PUBCHEM_XLOGP3_AA>
2.5

> <PUBCHEM_EXACT_MASS>
140.120115130

> <PUBCHEM_MOLECULAR_FORMULA>
C9H16O

> <PUBCHEM_MOLECULAR_WEIGHT>
140.22

> <PUBCHEM_SMILES>
CCCC/C=C\CCC=O

> <PUBCHEM_CONNECTIVITY_SMILES>
CCCCC=CCCC=O

> <PUBCHEM_CACTVS_TPSA>
17.1

> <PUBCHEM_MONOISOTOPIC_WEIGHT>
140.120115130

> <PUBCHEM_TOTAL_CHARGE>
0

> <PUBCHEM_HEAVY_ATOM_COUNT>
10

> <PUBCHEM_ATOM_DEF_STEREO_COUNT>
0

> <PUBCHEM_ATOM_UDEF_STEREO_COUNT>
0

> <PUBCHEM_BOND_DEF_STEREO_COUNT>
1

> <PUBCHEM_BOND_UDEF_STEREO_COUNT>
0

> <PUBCHEM_ISOTOPIC_ATOM_COUNT>
0

> <PUBCHEM_COMPONENT_COUNT>
1

> <PUBCHEM_CACTVS_TAUTO_COUNT>
-1

> <PUBCHEM_COORDINATE_TYPE>
1
5
255

$$$$
