5352847
  -OEChem-05122609552D

 42 42  0     1  0  0  0  0  0999 V2000
    6.6391    1.7211    0.0000 O   0  0  0  0  0  0  0  0  0  0  0  0
    3.7321    0.2700    0.0000 C   0  0  3  0  0  0  0  0  0  0  0  0
    2.8660    0.7700    0.0000 C   0  0  0  0  0  0  0  0  0  0  0  0
    3.7321   -0.7300    0.0000 C   0  0  0  0  0  0  0  0  0  0  0  0
    6.3301    0.7700    0.0000 C   0  0  3  0  0  0  0  0  0  0  0  0
    4.5981   -1.2300    0.0000 C   0  0  0  0  0  0  0  0  0  0  0  0
    4.5981    0.7700    0.0000 C   0  0  0  0  0  0  0  0  0  0  0  0
    7.1962    0.2700    0.0000 C   0  0  0  0  0  0  0  0  0  0  0  0
    5.4641    0.2700    0.0000 C   0  0  0  0  0  0  0  0  0  0  0  0
    7.1962   -0.7300    0.0000 C   0  0  0  0  0  0  0  0  0  0  0  0
    5.4641   -0.7300    0.0000 C   0  0  0  0  0  0  0  0  0  0  0  0
    2.0000    0.2700    0.0000 C   0  0  0  0  0  0  0  0  0  0  0  0
    2.8660    1.7700    0.0000 C   0  0  0  0  0  0  0  0  0  0  0  0
    6.3301   -1.2300    0.0000 C   0  0  0  0  0  0  0  0  0  0  0  0
    6.0211    1.7211    0.0000 C   0  0  0  0  0  0  0  0  0  0  0  0
    5.7333    0.7965    0.0000 C   0  0  0  0  0  0  0  0  0  0  0  0
    3.7321    0.8900    0.0000 H   0  0  0  0  0  0  0  0  0  0  0  0
    2.8660    0.1500    0.0000 H   0  0  0  0  0  0  0  0  0  0  0  0
    3.1215   -0.6223    0.0000 H   0  0  0  0  0  0  0  0  0  0  0  0
    3.5200   -1.3126    0.0000 H   0  0  0  0  0  0  0  0  0  0  0  0
    4.1996   -1.7049    0.0000 H   0  0  0  0  0  0  0  0  0  0  0  0
    4.9966   -1.7049    0.0000 H   0  0  0  0  0  0  0  0  0  0  0  0
    4.5981    1.3900    0.0000 H   0  0  0  0  0  0  0  0  0  0  0  0
    7.8067    0.1624    0.0000 H   0  0  0  0  0  0  0  0  0  0  0  0
    7.4082    0.8526    0.0000 H   0  0  0  0  0  0  0  0  0  0  0  0
    5.0658   -0.2051    0.0000 H   0  0  0  0  0  0  0  0  0  0  0  0
    7.4082   -1.3126    0.0000 H   0  0  0  0  0  0  0  0  0  0  0  0
    7.8067   -0.6223    0.0000 H   0  0  0  0  0  0  0  0  0  0  0  0
    1.6900    0.8070    0.0000 H   0  0  0  0  0  0  0  0  0  0  0  0
    1.4631   -0.0400    0.0000 H   0  0  0  0  0  0  0  0  0  0  0  0
    2.3100   -0.2669    0.0000 H   0  0  0  0  0  0  0  0  0  0  0  0
    3.4860    1.7700    0.0000 H   0  0  0  0  0  0  0  0  0  0  0  0
    2.8660    2.3900    0.0000 H   0  0  0  0  0  0  0  0  0  0  0  0
    2.2460    1.7700    0.0000 H   0  0  0  0  0  0  0  0  0  0  0  0
    6.3301   -1.8500    0.0000 H   0  0  0  0  0  0  0  0  0  0  0  0
    6.6108    1.9127    0.0000 H   0  0  0  0  0  0  0  0  0  0  0  0
    5.8295    2.3107    0.0000 H   0  0  0  0  0  0  0  0  0  0  0  0
    5.4315    1.5295    0.0000 H   0  0  0  0  0  0  0  0  0  0  0  0
    6.3438    0.6888    0.0000 H   0  0  0  0  0  0  0  0  0  0  0  0
    5.8409    1.4071    0.0000 H   0  0  0  0  0  0  0  0  0  0  0  0
    5.1227    0.9041    0.0000 H   0  0  0  0  0  0  0  0  0  0  0  0
    7.2456    1.8500    0.0000 H   0  0  0  0  0  0  0  0  0  0  0  0
  1  5  1  0  0  0  0
  1 42  1  0  0  0  0
  2  3  1  0  0  0  0
  2  4  1  0  0  0  0
  2  7  1  0  0  0  0
  2 17  1  0  0  0  0
  3 12  1  0  0  0  0
  3 13  1  0  0  0  0
  3 18  1  0  0  0  0
  4  6  1  0  0  0  0
  4 19  1  0  0  0  0
  4 20  1  0  0  0  0
  5  8  1  0  0  0  0
  5  9  1  0  0  0  0
  5 15  1  0  0  0  0
  6 11  1  0  0  0  0
  6 21  1  0  0  0  0
  6 22  1  0  0  0  0
  7  9  2  0  0  0  0
  7 23  1  0  0  0  0
  8 10  1  0  0  0  0
  8 24  1  0  0  0  0
  8 25  1  0  0  0  0
  9 26  1  0  0  0  0
 10 14  1  0  0  0  0
 10 27  1  0  0  0  0
 10 28  1  0  0  0  0
 11 14  2  0  0  0  0
 11 16  1  0  0  0  0
 12 29  1  0  0  0  0
 12 30  1  0  0  0  0
 12 31  1  0  0  0  0
 13 32  1  0  0  0  0
 13 33  1  0  0  0  0
 13 34  1  0  0  0  0
 14 35  1  0  0  0  0
 15 36  1  0  0  0  0
 15 37  1  0  0  0  0
 15 38  1  0  0  0  0
 16 39  1  0  0  0  0
 16 40  1  0  0  0  0
 16 41  1  0  0  0  0
M  END
> <PUBCHEM_COMPOUND_CID>
5352847

> <PUBCHEM_COMPOUND_CANONICALIZED>
1

> <PUBCHEM_CACTVS_COMPLEXITY>
275

> <PUBCHEM_CACTVS_HBOND_ACCEPTOR>
1

> <PUBCHEM_CACTVS_HBOND_DONOR>
1

> <PUBCHEM_CACTVS_ROTATABLE_BOND>
1

> <PUBCHEM_CACTVS_SUBSKEYS>
AAADceBwIAAAAAAAAAAAAAAAAAAAAAAAAAAAAAAAAAAAAACAAAAAGgAACAAADUSAgAACAAAAAgCAAiBCAAAAAAAgAAAICAAAAAgABAIAAQAAUAAEgAAIEAMAgEAOgAAAAAAAAAAAAAAAAAAAAAAAAAAAAA==

> <PUBCHEM_IUPAC_OPENEYE_NAME>
(2E,7E)-4-isopropyl-1,7-dimethyl-cyclodeca-2,7-dien-1-ol

> <PUBCHEM_IUPAC_CAS_NAME>
(2E,7E)-1,7-dimethyl-4-propan-2-yl-1-cyclodeca-2,7-dienol

> <PUBCHEM_IUPAC_NAME_MARKUP>
(2<I>E</I>,7<I>E</I>)-1,7-dimethyl-4-propan-2-ylcyclodeca-2,7-dien-1-ol

> <PUBCHEM_IUPAC_NAME>
(2E,7E)-1,7-dimethyl-4-propan-2-ylcyclodeca-2,7-dien-1-ol

> <PUBCHEM_IUPAC_SYSTEMATIC_NAME>
(2E,7E)-1,7-dimethyl-4-propan-2-yl-cyclodeca-2,7-dien-1-ol

> <PUBCHEM_IUPAC_TRADITIONAL_NAME>
(2E,7E)-4-isopropyl-1,7-dimethyl-cyclodeca-2,7-dien-1-ol

> <PUBCHEM_IUPAC_INCHI>
InChI=1S/C15H26O/c1-12(2)14-8-7-13(3)6-5-10-15(4,16)11-9-14/h6,9,11-12,14,16H,5,7-8,10H2,1-4H3/b11-9+,13-6+

> <PUBCHEM_IUPAC_INCHIKEY>
RHCTXHCNRLCYBN-BMCYRRRCSA-N

> <PUBCHEM_XLOGP3_AA>
3.8

> <PUBCHEM_EXACT_MASS>
222.198365449

> <PUBCHEM_MOLECULAR_FORMULA>
C15H26O

> <PUBCHEM_MOLECULAR_WEIGHT>
222.37

> <PUBCHEM_SMILES>
C/C/1=C\CCC(/C=C/C(CC1)C(C)C)(C)O

> <PUBCHEM_CONNECTIVITY_SMILES>
CC1=CCCC(C=CC(CC1)C(C)C)(C)O

> <PUBCHEM_CACTVS_TPSA>
20.2

> <PUBCHEM_MONOISOTOPIC_WEIGHT>
222.198365449

> <PUBCHEM_TOTAL_CHARGE>
0

> <PUBCHEM_HEAVY_ATOM_COUNT>
16

> <PUBCHEM_ATOM_DEF_STEREO_COUNT>
0

> <PUBCHEM_ATOM_UDEF_STEREO_COUNT>
2

> <PUBCHEM_BOND_DEF_STEREO_COUNT>
2

> <PUBCHEM_BOND_UDEF_STEREO_COUNT>
0

> <PUBCHEM_ISOTOPIC_ATOM_COUNT>
0

> <PUBCHEM_COMPONENT_COUNT>
1

> <PUBCHEM_CACTVS_TAUTO_COUNT>
-1

> <PUBCHEM_COORDINATE_TYPE>
1
5
255

> <PUBCHEM_BONDANNOTATIONS>
5  1  3
2  3  3

$$$$
