5354171
  -OEChem-05122608482D

 72 71  0     1  0  0  0  0  0999 V2000
   10.6603   -2.5000    0.0000 O   0  0  0  0  0  0  0  0  0  0  0  0
    3.7321    4.5000    0.0000 O   0  0  0  0  0  0  0  0  0  0  0  0
    2.8660    3.0000    0.0000 O   0  0  0  0  0  0  0  0  0  0  0  0
   11.5263   -4.0000    0.0000 O   0  0  0  0  0  0  0  0  0  0  0  0
    9.7942   -4.0000    0.0000 C   0  0  0  0  0  0  0  0  0  0  0  0
    9.7942   -3.0000    0.0000 C   0  0  2  0  0  0  0  0  0  0  0  0
    8.9282   -4.5000    0.0000 C   0  0  0  0  0  0  0  0  0  0  0  0
    8.9282   -5.5000    0.0000 C   0  0  0  0  0  0  0  0  0  0  0  0
    8.9282   -2.5000    0.0000 C   0  0  0  0  0  0  0  0  0  0  0  0
    6.3301   -0.0000    0.0000 C   0  0  0  0  0  0  0  0  0  0  0  0
    5.4641    0.5000    0.0000 C   0  0  0  0  0  0  0  0  0  0  0  0
    6.3301   -1.0000    0.0000 C   0  0  0  0  0  0  0  0  0  0  0  0
    8.0622   -6.0000    0.0000 C   0  0  0  0  0  0  0  0  0  0  0  0
    5.4641    1.5000    0.0000 C   0  0  0  0  0  0  0  0  0  0  0  0
    7.1962   -1.5000    0.0000 C   0  0  0  0  0  0  0  0  0  0  0  0
    4.5981    2.0000    0.0000 C   0  0  0  0  0  0  0  0  0  0  0  0
    8.0622   -3.0000    0.0000 C   0  0  0  0  0  0  0  0  0  0  0  0
    8.0622   -7.0000    0.0000 C   0  0  0  0  0  0  0  0  0  0  0  0
    7.1962   -2.5000    0.0000 C   0  0  0  0  0  0  0  0  0  0  0  0
    4.5981    3.0000    0.0000 C   0  0  0  0  0  0  0  0  0  0  0  0
    7.1962   -7.5000    0.0000 C   0  0  0  0  0  0  0  0  0  0  0  0
   11.5263   -3.0000    0.0000 C   0  0  0  0  0  0  0  0  0  0  0  0
    3.7321    3.5000    0.0000 C   0  0  0  0  0  0  0  0  0  0  0  0
    2.8660    5.0000    0.0000 C   0  0  0  0  0  0  0  0  0  0  0  0
   12.3923   -2.5000    0.0000 C   0  0  0  0  0  0  0  0  0  0  0  0
    2.8660    6.0000    0.0000 C   0  0  0  0  0  0  0  0  0  0  0  0
    2.0000    6.5000    0.0000 C   0  0  0  0  0  0  0  0  0  0  0  0
    2.0000    7.5000    0.0000 C   0  0  0  0  0  0  0  0  0  0  0  0
   10.0063   -4.5826    0.0000 H   0  0  0  0  0  0  0  0  0  0  0  0
   10.4048   -3.8923    0.0000 H   0  0  0  0  0  0  0  0  0  0  0  0
    9.7942   -2.3800    0.0000 H   0  0  0  0  0  0  0  0  0  0  0  0
    8.7162   -3.9174    0.0000 H   0  0  0  0  0  0  0  0  0  0  0  0
    8.3176   -4.6077    0.0000 H   0  0  0  0  0  0  0  0  0  0  0  0
    9.1403   -6.0826    0.0000 H   0  0  0  0  0  0  0  0  0  0  0  0
    9.5388   -5.3923    0.0000 H   0  0  0  0  0  0  0  0  0  0  0  0
    9.3267   -2.0251    0.0000 H   0  0  0  0  0  0  0  0  0  0  0  0
    8.5297   -2.0251    0.0000 H   0  0  0  0  0  0  0  0  0  0  0  0
    6.9407   -0.1077    0.0000 H   0  0  0  0  0  0  0  0  0  0  0  0
    6.5422    0.5826    0.0000 H   0  0  0  0  0  0  0  0  0  0  0  0
    4.8535    0.6077    0.0000 H   0  0  0  0  0  0  0  0  0  0  0  0
    5.2521   -0.0826    0.0000 H   0  0  0  0  0  0  0  0  0  0  0  0
    5.7196   -0.8923    0.0000 H   0  0  0  0  0  0  0  0  0  0  0  0
    6.1181   -1.5826    0.0000 H   0  0  0  0  0  0  0  0  0  0  0  0
    7.8501   -5.4174    0.0000 H   0  0  0  0  0  0  0  0  0  0  0  0
    7.4516   -6.1077    0.0000 H   0  0  0  0  0  0  0  0  0  0  0  0
    6.0747    1.3923    0.0000 H   0  0  0  0  0  0  0  0  0  0  0  0
    5.6762    2.0826    0.0000 H   0  0  0  0  0  0  0  0  0  0  0  0
    7.8067   -1.6077    0.0000 H   0  0  0  0  0  0  0  0  0  0  0  0
    7.4082   -0.9174    0.0000 H   0  0  0  0  0  0  0  0  0  0  0  0
    3.9875    2.1077    0.0000 H   0  0  0  0  0  0  0  0  0  0  0  0
    4.3860    1.4174    0.0000 H   0  0  0  0  0  0  0  0  0  0  0  0
    8.0622   -3.6200    0.0000 H   0  0  0  0  0  0  0  0  0  0  0  0
    8.2742   -7.5826    0.0000 H   0  0  0  0  0  0  0  0  0  0  0  0
    8.6728   -6.8923    0.0000 H   0  0  0  0  0  0  0  0  0  0  0  0
    6.6592   -2.8100    0.0000 H   0  0  0  0  0  0  0  0  0  0  0  0
    5.2087    2.8923    0.0000 H   0  0  0  0  0  0  0  0  0  0  0  0
    4.8101    3.5826    0.0000 H   0  0  0  0  0  0  0  0  0  0  0  0
    6.8862   -6.9631    0.0000 H   0  0  0  0  0  0  0  0  0  0  0  0
    6.6592   -7.8100    0.0000 H   0  0  0  0  0  0  0  0  0  0  0  0
    7.5062   -8.0369    0.0000 H   0  0  0  0  0  0  0  0  0  0  0  0
    2.2554    5.1077    0.0000 H   0  0  0  0  0  0  0  0  0  0  0  0
    2.6540    4.4174    0.0000 H   0  0  0  0  0  0  0  0  0  0  0  0
    3.4766    5.8923    0.0000 H   0  0  0  0  0  0  0  0  0  0  0  0
    3.0781    6.5826    0.0000 H   0  0  0  0  0  0  0  0  0  0  0  0
   12.7023   -3.0369    0.0000 H   0  0  0  0  0  0  0  0  0  0  0  0
   12.9292   -2.1900    0.0000 H   0  0  0  0  0  0  0  0  0  0  0  0
   12.0823   -1.9631    0.0000 H   0  0  0  0  0  0  0  0  0  0  0  0
    1.3894    6.6077    0.0000 H   0  0  0  0  0  0  0  0  0  0  0  0
    1.7880    5.9174    0.0000 H   0  0  0  0  0  0  0  0  0  0  0  0
    2.6200    7.5000    0.0000 H   0  0  0  0  0  0  0  0  0  0  0  0
    2.0000    8.1200    0.0000 H   0  0  0  0  0  0  0  0  0  0  0  0
    1.3800    7.5000    0.0000 H   0  0  0  0  0  0  0  0  0  0  0  0
  6  1  1  6  0  0  0
  1 22  1  0  0  0  0
  2 23  1  0  0  0  0
  2 24  1  0  0  0  0
  3 23  2  0  0  0  0
  4 22  2  0  0  0  0
  5  6  1  0  0  0  0
  5  7  1  0  0  0  0
  5 29  1  0  0  0  0
  5 30  1  0  0  0  0
  6  9  1  0  0  0  0
  6 31  1  0  0  0  0
  7  8  1  0  0  0  0
  7 32  1  0  0  0  0
  7 33  1  0  0  0  0
  8 13  1  0  0  0  0
  8 34  1  0  0  0  0
  8 35  1  0  0  0  0
  9 17  1  0  0  0  0
  9 36  1  0  0  0  0
  9 37  1  0  0  0  0
 10 11  1  0  0  0  0
 10 12  1  0  0  0  0
 10 38  1  0  0  0  0
 10 39  1  0  0  0  0
 11 14  1  0  0  0  0
 11 40  1  0  0  0  0
 11 41  1  0  0  0  0
 12 15  1  0  0  0  0
 12 42  1  0  0  0  0
 12 43  1  0  0  0  0
 13 18  1  0  0  0  0
 13 44  1  0  0  0  0
 13 45  1  0  0  0  0
 14 16  1  0  0  0  0
 14 46  1  0  0  0  0
 14 47  1  0  0  0  0
 15 19  1  0  0  0  0
 15 48  1  0  0  0  0
 15 49  1  0  0  0  0
 16 20  1  0  0  0  0
 16 50  1  0  0  0  0
 16 51  1  0  0  0  0
 17 19  2  0  0  0  0
 17 52  1  0  0  0  0
 18 21  1  0  0  0  0
 18 53  1  0  0  0  0
 18 54  1  0  0  0  0
 19 55  1  0  0  0  0
 20 23  1  0  0  0  0
 20 56  1  0  0  0  0
 20 57  1  0  0  0  0
 21 58  1  0  0  0  0
 21 59  1  0  0  0  0
 21 60  1  0  0  0  0
 22 25  1  0  0  0  0
 24 26  1  0  0  0  0
 24 61  1  0  0  0  0
 24 62  1  0  0  0  0
 25 65  1  0  0  0  0
 25 66  1  0  0  0  0
 25 67  1  0  0  0  0
 26 27  1  0  0  0  0
 26 63  1  0  0  0  0
 26 64  1  0  0  0  0
 27 28  1  0  0  0  0
 27 68  1  0  0  0  0
 27 69  1  0  0  0  0
 28 70  1  0  0  0  0
 28 71  1  0  0  0  0
 28 72  1  0  0  0  0
M  END
> <PUBCHEM_COMPOUND_CID>
5354171

> <PUBCHEM_COMPOUND_CANONICALIZED>
1

> <PUBCHEM_CACTVS_COMPLEXITY>
403

> <PUBCHEM_CACTVS_HBOND_ACCEPTOR>
4

> <PUBCHEM_CACTVS_HBOND_DONOR>
0

> <PUBCHEM_CACTVS_ROTATABLE_BOND>
21

> <PUBCHEM_CACTVS_SUBSKEYS>
AAADcfB4OAAAAAAAAAAAAAAAAAAAAAAAAAAAAAAAAAAAAAAAAAAAGgAAAAAACBSggAICCAAABACIACDSCAAAAAAgAAAICAEAAAgAABIAAQACAAAEwAAIAAOIyKCAAAAAAAAAAAAAAAAAAAAAAAAAAAAAAA==

> <PUBCHEM_IUPAC_OPENEYE_NAME>
butyl (Z,12R)-12-acetoxyoctadec-9-enoate

> <PUBCHEM_IUPAC_CAS_NAME>
(Z,12R)-12-acetyloxy-9-octadecenoic acid butyl ester

> <PUBCHEM_IUPAC_NAME_MARKUP>
butyl (<I>Z</I>,12<I>R</I>)-12-acetyloxyoctadec-9-enoate

> <PUBCHEM_IUPAC_NAME>
butyl (Z,12R)-12-acetyloxyoctadec-9-enoate

> <PUBCHEM_IUPAC_SYSTEMATIC_NAME>
butyl (Z,12R)-12-acetyloxyoctadec-9-enoate

> <PUBCHEM_IUPAC_TRADITIONAL_NAME>
(Z,12R)-12-acetoxyoctadec-9-enoic acid butyl ester

> <PUBCHEM_IUPAC_INCHI>
InChI=1S/C24H44O4/c1-4-6-8-15-18-23(28-22(3)25)19-16-13-11-9-10-12-14-17-20-24(26)27-21-7-5-2/h13,16,23H,4-12,14-15,17-21H2,1-3H3/b16-13-/t23-/m1/s1

> <PUBCHEM_IUPAC_INCHIKEY>
BEWFIPLBFJGWSR-AONZOJHOSA-N

> <PUBCHEM_XLOGP3_AA>
7.9

> <PUBCHEM_EXACT_MASS>
396.32395988

> <PUBCHEM_MOLECULAR_FORMULA>
C24H44O4

> <PUBCHEM_MOLECULAR_WEIGHT>
396.6

> <PUBCHEM_SMILES>
CCCCCC[C@H](C/C=C\CCCCCCCC(=O)OCCCC)OC(=O)C

> <PUBCHEM_CONNECTIVITY_SMILES>
CCCCCCC(CC=CCCCCCCCC(=O)OCCCC)OC(=O)C

> <PUBCHEM_CACTVS_TPSA>
52.6

> <PUBCHEM_MONOISOTOPIC_WEIGHT>
396.32395988

> <PUBCHEM_TOTAL_CHARGE>
0

> <PUBCHEM_HEAVY_ATOM_COUNT>
28

> <PUBCHEM_ATOM_DEF_STEREO_COUNT>
1

> <PUBCHEM_ATOM_UDEF_STEREO_COUNT>
0

> <PUBCHEM_BOND_DEF_STEREO_COUNT>
1

> <PUBCHEM_BOND_UDEF_STEREO_COUNT>
0

> <PUBCHEM_ISOTOPIC_ATOM_COUNT>
0

> <PUBCHEM_COMPONENT_COUNT>
1

> <PUBCHEM_CACTVS_TAUTO_COUNT>
-1

> <PUBCHEM_COORDINATE_TYPE>
1
5
255

> <PUBCHEM_BONDANNOTATIONS>
6  1  6

$$$$
