5354568
  -OEChem-05122608362D

 62 62  0     1  0  0  0  0  0999 V2000
    8.2331   -7.9330    0.0000 O   0  0  0  0  0  0  0  0  0  0  0  0
    6.8671   -5.5670    0.0000 O   0  0  0  0  0  0  0  0  0  0  0  0
    5.1350   -5.5670    0.0000 O   0  0  0  0  0  0  0  0  0  0  0  0
    7.7331   -7.0670    0.0000 C   0  0  3  0  0  0  0  0  0  0  0  0
    8.7331   -7.0670    0.0000 C   0  0  0  0  0  0  0  0  0  0  0  0
    4.2690   -2.0670    0.0000 C   0  0  0  0  0  0  0  0  0  0  0  0
    4.2690   -1.0670    0.0000 C   0  0  0  0  0  0  0  0  0  0  0  0
    5.1350   -2.5670    0.0000 C   0  0  0  0  0  0  0  0  0  0  0  0
    4.2690    4.9330    0.0000 C   0  0  0  0  0  0  0  0  0  0  0  0
    4.2690    3.9330    0.0000 C   0  0  0  0  0  0  0  0  0  0  0  0
    3.4030   -0.5670    0.0000 C   0  0  0  0  0  0  0  0  0  0  0  0
    6.8671   -6.5670    0.0000 C   0  0  0  0  0  0  0  0  0  0  0  0
    5.1350    5.4330    0.0000 C   0  0  0  0  0  0  0  0  0  0  0  0
    5.1350   -3.5670    0.0000 C   0  0  0  0  0  0  0  0  0  0  0  0
    3.4030    3.4330    0.0000 C   0  0  0  0  0  0  0  0  0  0  0  0
    5.1350    6.4330    0.0000 C   0  0  0  0  0  0  0  0  0  0  0  0
    3.4030    0.4330    0.0000 C   0  0  0  0  0  0  0  0  0  0  0  0
    3.4030    2.4330    0.0000 C   0  0  0  0  0  0  0  0  0  0  0  0
    6.0010   -4.0670    0.0000 C   0  0  0  0  0  0  0  0  0  0  0  0
    6.0010    6.9330    0.0000 C   0  0  0  0  0  0  0  0  0  0  0  0
    2.5369    0.9330    0.0000 C   0  0  0  0  0  0  0  0  0  0  0  0
    2.5369    1.9330    0.0000 C   0  0  0  0  0  0  0  0  0  0  0  0
    6.0010   -5.0670    0.0000 C   0  0  0  0  0  0  0  0  0  0  0  0
    6.0010    7.9330    0.0000 C   0  0  0  0  0  0  0  0  0  0  0  0
    7.2947   -7.5054    0.0000 H   0  0  0  0  0  0  0  0  0  0  0  0
    9.3157   -7.2790    0.0000 H   0  0  0  0  0  0  0  0  0  0  0  0
    8.8408   -6.4564    0.0000 H   0  0  0  0  0  0  0  0  0  0  0  0
    3.6584   -1.9593    0.0000 H   0  0  0  0  0  0  0  0  0  0  0  0
    4.0569   -2.6496    0.0000 H   0  0  0  0  0  0  0  0  0  0  0  0
    4.8796   -1.1747    0.0000 H   0  0  0  0  0  0  0  0  0  0  0  0
    4.4810   -0.4844    0.0000 H   0  0  0  0  0  0  0  0  0  0  0  0
    5.7456   -2.6747    0.0000 H   0  0  0  0  0  0  0  0  0  0  0  0
    5.3471   -1.9844    0.0000 H   0  0  0  0  0  0  0  0  0  0  0  0
    4.0569    5.5156    0.0000 H   0  0  0  0  0  0  0  0  0  0  0  0
    3.6584    4.8254    0.0000 H   0  0  0  0  0  0  0  0  0  0  0  0
    4.4810    3.3504    0.0000 H   0  0  0  0  0  0  0  0  0  0  0  0
    4.8796    4.0407    0.0000 H   0  0  0  0  0  0  0  0  0  0  0  0
    2.7924   -0.4593    0.0000 H   0  0  0  0  0  0  0  0  0  0  0  0
    3.1909   -1.1496    0.0000 H   0  0  0  0  0  0  0  0  0  0  0  0
    6.2565   -6.4593    0.0000 H   0  0  0  0  0  0  0  0  0  0  0  0
    6.6550   -7.1496    0.0000 H   0  0  0  0  0  0  0  0  0  0  0  0
    5.3471    4.8504    0.0000 H   0  0  0  0  0  0  0  0  0  0  0  0
    5.7456    5.5407    0.0000 H   0  0  0  0  0  0  0  0  0  0  0  0
    4.5244   -3.4593    0.0000 H   0  0  0  0  0  0  0  0  0  0  0  0
    4.9230   -4.1496    0.0000 H   0  0  0  0  0  0  0  0  0  0  0  0
    3.1909    4.0156    0.0000 H   0  0  0  0  0  0  0  0  0  0  0  0
    2.7924    3.3254    0.0000 H   0  0  0  0  0  0  0  0  0  0  0  0
    4.9230    7.0156    0.0000 H   0  0  0  0  0  0  0  0  0  0  0  0
    4.5244    6.3254    0.0000 H   0  0  0  0  0  0  0  0  0  0  0  0
    4.0135    0.3254    0.0000 H   0  0  0  0  0  0  0  0  0  0  0  0
    3.6150    1.0156    0.0000 H   0  0  0  0  0  0  0  0  0  0  0  0
    3.6150    1.8504    0.0000 H   0  0  0  0  0  0  0  0  0  0  0  0
    4.0135    2.5407    0.0000 H   0  0  0  0  0  0  0  0  0  0  0  0
    6.6116   -4.1747    0.0000 H   0  0  0  0  0  0  0  0  0  0  0  0
    6.2131   -3.4844    0.0000 H   0  0  0  0  0  0  0  0  0  0  0  0
    6.2131    6.3504    0.0000 H   0  0  0  0  0  0  0  0  0  0  0  0
    6.6116    7.0407    0.0000 H   0  0  0  0  0  0  0  0  0  0  0  0
    2.0000    0.6230    0.0000 H   0  0  0  0  0  0  0  0  0  0  0  0
    2.0000    2.2430    0.0000 H   0  0  0  0  0  0  0  0  0  0  0  0
    6.6210    7.9330    0.0000 H   0  0  0  0  0  0  0  0  0  0  0  0
    6.0010    8.5530    0.0000 H   0  0  0  0  0  0  0  0  0  0  0  0
    5.3810    7.9330    0.0000 H   0  0  0  0  0  0  0  0  0  0  0  0
  1  4  1  0  0  0  0
  1  5  1  0  0  0  0
  2 12  1  0  0  0  0
  2 23  1  0  0  0  0
  3 23  2  0  0  0  0
  4  5  1  0  0  0  0
  4 12  1  0  0  0  0
  4 25  1  0  0  0  0
  5 26  1  0  0  0  0
  5 27  1  0  0  0  0
  6  7  1  0  0  0  0
  6  8  1  0  0  0  0
  6 28  1  0  0  0  0
  6 29  1  0  0  0  0
  7 11  1  0  0  0  0
  7 30  1  0  0  0  0
  7 31  1  0  0  0  0
  8 14  1  0  0  0  0
  8 32  1  0  0  0  0
  8 33  1  0  0  0  0
  9 10  1  0  0  0  0
  9 13  1  0  0  0  0
  9 34  1  0  0  0  0
  9 35  1  0  0  0  0
 10 15  1  0  0  0  0
 10 36  1  0  0  0  0
 10 37  1  0  0  0  0
 11 17  1  0  0  0  0
 11 38  1  0  0  0  0
 11 39  1  0  0  0  0
 12 40  1  0  0  0  0
 12 41  1  0  0  0  0
 13 16  1  0  0  0  0
 13 42  1  0  0  0  0
 13 43  1  0  0  0  0
 14 19  1  0  0  0  0
 14 44  1  0  0  0  0
 14 45  1  0  0  0  0
 15 18  1  0  0  0  0
 15 46  1  0  0  0  0
 15 47  1  0  0  0  0
 16 20  1  0  0  0  0
 16 48  1  0  0  0  0
 16 49  1  0  0  0  0
 17 21  1  0  0  0  0
 17 50  1  0  0  0  0
 17 51  1  0  0  0  0
 18 22  1  0  0  0  0
 18 52  1  0  0  0  0
 18 53  1  0  0  0  0
 19 23  1  0  0  0  0
 19 54  1  0  0  0  0
 19 55  1  0  0  0  0
 20 24  1  0  0  0  0
 20 56  1  0  0  0  0
 20 57  1  0  0  0  0
 21 22  2  0  0  0  0
 21 58  1  0  0  0  0
 22 59  1  0  0  0  0
 24 60  1  0  0  0  0
 24 61  1  0  0  0  0
 24 62  1  0  0  0  0
M  END
> <PUBCHEM_COMPOUND_CID>
5354568

> <PUBCHEM_COMPOUND_CANONICALIZED>
1

> <PUBCHEM_CACTVS_COMPLEXITY>
325

> <PUBCHEM_CACTVS_HBOND_ACCEPTOR>
3

> <PUBCHEM_CACTVS_HBOND_DONOR>
0

> <PUBCHEM_CACTVS_ROTATABLE_BOND>
18

> <PUBCHEM_CACTVS_SUBSKEYS>
AAADcfB4MAAAAAAAAAAAAAAAEgAAAAAAAAAAAAAAAAAAAAAAAAAAGgAAAAAACBSggAICCAAABACIACDSCAAAAAAgAAAICAEAAAgBABIAAQACAAAFgAAKAAOIyKCAAAAAAAAAAAAAAAAAAAAAAAAAAAAAAA==

> <PUBCHEM_IUPAC_OPENEYE_NAME>
oxiran-2-ylmethyl (Z)-octadec-9-enoate

> <PUBCHEM_IUPAC_CAS_NAME>
(Z)-9-octadecenoic acid 2-oxiranylmethyl ester

> <PUBCHEM_IUPAC_NAME_MARKUP>
oxiran-2-ylmethyl (<I>Z</I>)-octadec-9-enoate

> <PUBCHEM_IUPAC_NAME>
oxiran-2-ylmethyl (Z)-octadec-9-enoate

> <PUBCHEM_IUPAC_SYSTEMATIC_NAME>
oxiran-2-ylmethyl (Z)-octadec-9-enoate

> <PUBCHEM_IUPAC_TRADITIONAL_NAME>
(Z)-octadec-9-enoic acid glycidyl ester

> <PUBCHEM_IUPAC_INCHI>
InChI=1S/C21H38O3/c1-2-3-4-5-6-7-8-9-10-11-12-13-14-15-16-17-21(22)24-19-20-18-23-20/h9-10,20H,2-8,11-19H2,1H3/b10-9-

> <PUBCHEM_IUPAC_INCHIKEY>
VWYIWOYBERNXLX-KTKRTIGZSA-N

> <PUBCHEM_XLOGP3_AA>
7.3

> <PUBCHEM_EXACT_MASS>
338.28209507

> <PUBCHEM_MOLECULAR_FORMULA>
C21H38O3

> <PUBCHEM_MOLECULAR_WEIGHT>
338.5

> <PUBCHEM_SMILES>
CCCCCCCC/C=C\CCCCCCCC(=O)OCC1CO1

> <PUBCHEM_CONNECTIVITY_SMILES>
CCCCCCCCC=CCCCCCCCC(=O)OCC1CO1

> <PUBCHEM_CACTVS_TPSA>
38.8

> <PUBCHEM_MONOISOTOPIC_WEIGHT>
338.28209507

> <PUBCHEM_TOTAL_CHARGE>
0

> <PUBCHEM_HEAVY_ATOM_COUNT>
24

> <PUBCHEM_ATOM_DEF_STEREO_COUNT>
0

> <PUBCHEM_ATOM_UDEF_STEREO_COUNT>
1

> <PUBCHEM_BOND_DEF_STEREO_COUNT>
1

> <PUBCHEM_BOND_UDEF_STEREO_COUNT>
0

> <PUBCHEM_ISOTOPIC_ATOM_COUNT>
0

> <PUBCHEM_COMPONENT_COUNT>
1

> <PUBCHEM_CACTVS_TAUTO_COUNT>
-1

> <PUBCHEM_COORDINATE_TYPE>
1
5
255

> <PUBCHEM_BONDANNOTATIONS>
4  12  3

$$$$
