5354120
  -OEChem-05122609452D

 28 30  0     0  0  0  0  0  0999 V2000
    3.7321   -0.5591    0.0000 C   0  0  0  0  0  0  0  0  0  0  0  0
    4.6783   -0.2544    0.0000 C   0  0  0  0  0  0  0  0  0  0  0  0
    3.7321   -1.5591    0.0000 C   0  0  0  0  0  0  0  0  0  0  0  0
    5.2619   -1.0591    0.0000 C   0  0  0  0  0  0  0  0  0  0  0  0
    4.6783   -1.8638    0.0000 C   0  0  0  0  0  0  0  0  0  0  0  0
    4.9889    0.6961    0.0000 C   0  0  0  0  0  0  0  0  0  0  0  0
    2.8660   -0.0591    0.0000 C   0  0  0  0  0  0  0  0  0  0  0  0
    2.8660   -2.0591    0.0000 C   0  0  0  0  0  0  0  0  0  0  0  0
    5.9674    0.9024    0.0000 C   0  0  0  0  0  0  0  0  0  0  0  0
    2.0000   -0.5591    0.0000 C   0  0  0  0  0  0  0  0  0  0  0  0
    2.0000   -1.5591    0.0000 C   0  0  0  0  0  0  0  0  0  0  0  0
    6.6353    0.1581    0.0000 C   0  0  0  0  0  0  0  0  0  0  0  0
    6.2781    1.8529    0.0000 C   0  0  0  0  0  0  0  0  0  0  0  0
    7.6138    0.3643    0.0000 C   0  0  0  0  0  0  0  0  0  0  0  0
    7.2566    2.0591    0.0000 C   0  0  0  0  0  0  0  0  0  0  0  0
    7.9245    1.3148    0.0000 C   0  0  0  0  0  0  0  0  0  0  0  0
    5.8819   -1.0591    0.0000 H   0  0  0  0  0  0  0  0  0  0  0  0
    4.8709   -2.4532    0.0000 H   0  0  0  0  0  0  0  0  0  0  0  0
    4.5749    1.1576    0.0000 H   0  0  0  0  0  0  0  0  0  0  0  0
    2.8660    0.5609    0.0000 H   0  0  0  0  0  0  0  0  0  0  0  0
    2.8660   -2.6791    0.0000 H   0  0  0  0  0  0  0  0  0  0  0  0
    1.4631   -0.2491    0.0000 H   0  0  0  0  0  0  0  0  0  0  0  0
    1.4631   -1.8691    0.0000 H   0  0  0  0  0  0  0  0  0  0  0  0
    6.4427   -0.4313    0.0000 H   0  0  0  0  0  0  0  0  0  0  0  0
    5.8640    2.3144    0.0000 H   0  0  0  0  0  0  0  0  0  0  0  0
    8.0279   -0.0972    0.0000 H   0  0  0  0  0  0  0  0  0  0  0  0
    7.4492    2.6484    0.0000 H   0  0  0  0  0  0  0  0  0  0  0  0
    8.5311    1.4427    0.0000 H   0  0  0  0  0  0  0  0  0  0  0  0
  1  2  1  0  0  0  0
  1  3  1  0  0  0  0
  1  7  2  0  0  0  0
  2  4  1  0  0  0  0
  2  6  2  0  0  0  0
  3  5  1  0  0  0  0
  3  8  2  0  0  0  0
  4  5  2  0  0  0  0
  4 17  1  0  0  0  0
  5 18  1  0  0  0  0
  6  9  1  0  0  0  0
  6 19  1  0  0  0  0
  7 10  1  0  0  0  0
  7 20  1  0  0  0  0
  8 11  1  0  0  0  0
  8 21  1  0  0  0  0
  9 12  2  0  0  0  0
  9 13  1  0  0  0  0
 10 11  2  0  0  0  0
 10 22  1  0  0  0  0
 11 23  1  0  0  0  0
 12 14  1  0  0  0  0
 12 24  1  0  0  0  0
 13 15  2  0  0  0  0
 13 25  1  0  0  0  0
 14 16  2  0  0  0  0
 14 26  1  0  0  0  0
 15 16  1  0  0  0  0
 15 27  1  0  0  0  0
 16 28  1  0  0  0  0
M  END
> <PUBCHEM_COMPOUND_CID>
5354120

> <PUBCHEM_COMPOUND_CANONICALIZED>
1

> <PUBCHEM_CACTVS_COMPLEXITY>
291

> <PUBCHEM_CACTVS_HBOND_ACCEPTOR>
0

> <PUBCHEM_CACTVS_HBOND_DONOR>
0

> <PUBCHEM_CACTVS_ROTATABLE_BOND>
1

> <PUBCHEM_CACTVS_SUBSKEYS>
AAADccB4AAAAAAAAAAAAAAAAAAAAAQAAAAAwYAAAAAAAAEABQAAAGAAAAAAADACAGAAwAIAAAACAAiBCAAACAAAgAAAIiAAAAIgIICKAERCAIAAggAAIiAcAgIAOgAAAAAAQAAAAAAAAACAAAAAAAAAAAA==

> <PUBCHEM_IUPAC_OPENEYE_NAME>
(1E)-1-benzylideneindene

> <PUBCHEM_IUPAC_CAS_NAME>
(1E)-1-(phenylmethylene)indene

> <PUBCHEM_IUPAC_NAME_MARKUP>
(1<I>E</I>)-1-benzylideneindene

> <PUBCHEM_IUPAC_NAME>
(1E)-1-benzylideneindene

> <PUBCHEM_IUPAC_SYSTEMATIC_NAME>
(1E)-1-(phenylmethylidene)indene

> <PUBCHEM_IUPAC_TRADITIONAL_NAME>
(1E)-1-benzalindene

> <PUBCHEM_IUPAC_INCHI>
InChI=1S/C16H12/c1-2-6-13(7-3-1)12-15-11-10-14-8-4-5-9-16(14)15/h1-12H/b15-12+

> <PUBCHEM_IUPAC_INCHIKEY>
SJWIOZSGMUJDFJ-NTCAYCPXSA-N

> <PUBCHEM_XLOGP3_AA>
4.3

> <PUBCHEM_EXACT_MASS>
204.093900383

> <PUBCHEM_MOLECULAR_FORMULA>
C16H12

> <PUBCHEM_MOLECULAR_WEIGHT>
204.27

> <PUBCHEM_SMILES>
C1=CC=C(C=C1)/C=C/2\C=CC3=CC=CC=C32

> <PUBCHEM_CONNECTIVITY_SMILES>
C1=CC=C(C=C1)C=C2C=CC3=CC=CC=C32

> <PUBCHEM_CACTVS_TPSA>
0

> <PUBCHEM_MONOISOTOPIC_WEIGHT>
204.093900383

> <PUBCHEM_TOTAL_CHARGE>
0

> <PUBCHEM_HEAVY_ATOM_COUNT>
16

> <PUBCHEM_ATOM_DEF_STEREO_COUNT>
0

> <PUBCHEM_ATOM_UDEF_STEREO_COUNT>
0

> <PUBCHEM_BOND_DEF_STEREO_COUNT>
1

> <PUBCHEM_BOND_UDEF_STEREO_COUNT>
0

> <PUBCHEM_ISOTOPIC_ATOM_COUNT>
0

> <PUBCHEM_COMPONENT_COUNT>
1

> <PUBCHEM_CACTVS_TAUTO_COUNT>
-1

> <PUBCHEM_COORDINATE_TYPE>
1
5
255

> <PUBCHEM_BONDANNOTATIONS>
1  3  8
1  7  8
10  11  8
12  14  8
13  15  8
14  16  8
15  16  8
3  8  8
7  10  8
8  11  8
9  12  8
9  13  8

$$$$
