535684
  -OEChem-05122609032D

 25 27  0     0  0  0  0  0  0999 V2000
    4.5092    0.1484    0.0000 N   0  0  0  0  0  0  0  0  0  0  0  0
    2.8368    0.1484    0.0000 N   0  0  0  0  0  0  0  0  0  0  0  0
    3.6730    1.5967    0.0000 N   0  0  0  0  0  0  0  0  0  0  0  0
    2.9818   -1.2867    0.0000 N   0  0  0  0  0  0  0  0  0  0  0  0
    2.9819   -0.2867    0.0000 C   0  0  0  0  0  0  0  0  0  0  0  0
    3.8876   -0.7635    0.0000 C   0  0  0  0  0  0  0  0  0  0  0  0
    2.0000   -0.3344    0.0000 C   0  0  0  0  0  0  0  0  0  0  0  0
    2.9819    0.7586    0.0000 C   0  0  0  0  0  0  0  0  0  0  0  0
    3.6730   -0.1544    0.0000 C   0  0  0  0  0  0  0  0  0  0  0  0
    4.5092    1.1140    0.0000 C   0  0  0  0  0  0  0  0  0  0  0  0
    2.8368    1.1140    0.0000 C   0  0  0  0  0  0  0  0  0  0  0  0
    3.5782   -1.3008    0.0000 H   0  0  0  0  0  0  0  0  0  0  0  0
    4.4127   -1.0930    0.0000 H   0  0  0  0  0  0  0  0  0  0  0  0
    1.5188    0.0565    0.0000 H   0  0  0  0  0  0  0  0  0  0  0  0
    1.8068   -0.9235    0.0000 H   0  0  0  0  0  0  0  0  0  0  0  0
    2.6383    1.2747    0.0000 H   0  0  0  0  0  0  0  0  0  0  0  0
    2.3885    0.5791    0.0000 H   0  0  0  0  0  0  0  0  0  0  0  0
    3.3030   -0.6519    0.0000 H   0  0  0  0  0  0  0  0  0  0  0  0
    4.0430   -0.6519    0.0000 H   0  0  0  0  0  0  0  0  0  0  0  0
    5.1198    1.0063    0.0000 H   0  0  0  0  0  0  0  0  0  0  0  0
    4.7212    1.6966    0.0000 H   0  0  0  0  0  0  0  0  0  0  0  0
    2.6247    1.6966    0.0000 H   0  0  0  0  0  0  0  0  0  0  0  0
    2.2262    1.0063    0.0000 H   0  0  0  0  0  0  0  0  0  0  0  0
    2.4449   -1.5966    0.0000 H   0  0  0  0  0  0  0  0  0  0  0  0
    3.5188   -1.5967    0.0000 H   0  0  0  0  0  0  0  0  0  0  0  0
  1  6  1  0  0  0  0
  1  9  1  0  0  0  0
  1 10  1  0  0  0  0
  2  7  1  0  0  0  0
  2  9  1  0  0  0  0
  2 11  1  0  0  0  0
  3  8  1  0  0  0  0
  3 10  1  0  0  0  0
  3 11  1  0  0  0  0
  4  5  1  0  0  0  0
  4 24  1  0  0  0  0
  4 25  1  0  0  0  0
  5  6  1  0  0  0  0
  5  7  1  0  0  0  0
  5  8  1  0  0  0  0
  6 12  1  0  0  0  0
  6 13  1  0  0  0  0
  7 14  1  0  0  0  0
  7 15  1  0  0  0  0
  8 16  1  0  0  0  0
  8 17  1  0  0  0  0
  9 18  1  0  0  0  0
  9 19  1  0  0  0  0
 10 20  1  0  0  0  0
 10 21  1  0  0  0  0
 11 22  1  0  0  0  0
 11 23  1  0  0  0  0
M  END
> <PUBCHEM_COMPOUND_CID>
535684

> <PUBCHEM_COMPOUND_CANONICALIZED>
1

> <PUBCHEM_CACTVS_COMPLEXITY>
150

> <PUBCHEM_CACTVS_HBOND_ACCEPTOR>
4

> <PUBCHEM_CACTVS_HBOND_DONOR>
1

> <PUBCHEM_CACTVS_ROTATABLE_BOND>
0

> <PUBCHEM_CACTVS_SUBSKEYS>
AAADccBjgAAAAAAAAAAAAAAAAAAAAAAAAAAsWLFgAAAAAAAAAAAAHAAQAAAADIjBAAQBAANAAAAAAAAAAAAAAAAAAAAAAAAIAACAQAAAQAAUAAAIEAIAAAAAAAAAAAAAAAAAAAAAAAAAAAAAAAAAAAAAAA==

> <PUBCHEM_IUPAC_OPENEYE_NAME>
1,3,5-triazatricyclo[3.3.1.13,7]decan-7-amine

> <PUBCHEM_IUPAC_CAS_NAME>
1,3,5-triazatricyclo[3.3.1.13,7]decan-7-amine

> <PUBCHEM_IUPAC_NAME_MARKUP>
1,3,5-triazatricyclo[3.3.1.1<SUP>3,7</SUP>]decan-7-amine

> <PUBCHEM_IUPAC_NAME>
1,3,5-triazatricyclo[3.3.1.13,7]decan-7-amine

> <PUBCHEM_IUPAC_SYSTEMATIC_NAME>
1,3,5-triazatricyclo[3.3.1.13,7]decan-7-amine

> <PUBCHEM_IUPAC_TRADITIONAL_NAME>
1,3,5-triazatricyclo[3.3.1.13,7]decan-7-ylamine

> <PUBCHEM_IUPAC_INCHI>
InChI=1S/C7H14N4/c8-7-1-9-4-10(2-7)6-11(3-7)5-9/h1-6,8H2

> <PUBCHEM_IUPAC_INCHIKEY>
WXMJWQSOWLXJOA-UHFFFAOYSA-N

> <PUBCHEM_XLOGP3_AA>
-1.1

> <PUBCHEM_EXACT_MASS>
154.121846464

> <PUBCHEM_MOLECULAR_FORMULA>
C7H14N4

> <PUBCHEM_MOLECULAR_WEIGHT>
154.21

> <PUBCHEM_SMILES>
C1C2(CN3CN1CN(C2)C3)N

> <PUBCHEM_CONNECTIVITY_SMILES>
C1C2(CN3CN1CN(C2)C3)N

> <PUBCHEM_CACTVS_TPSA>
35.7

> <PUBCHEM_MONOISOTOPIC_WEIGHT>
154.121846464

> <PUBCHEM_TOTAL_CHARGE>
0

> <PUBCHEM_HEAVY_ATOM_COUNT>
11

> <PUBCHEM_ATOM_DEF_STEREO_COUNT>
0

> <PUBCHEM_ATOM_UDEF_STEREO_COUNT>
0

> <PUBCHEM_BOND_DEF_STEREO_COUNT>
0

> <PUBCHEM_BOND_UDEF_STEREO_COUNT>
0

> <PUBCHEM_ISOTOPIC_ATOM_COUNT>
0

> <PUBCHEM_COMPONENT_COUNT>
1

> <PUBCHEM_CACTVS_TAUTO_COUNT>
-1

> <PUBCHEM_COORDINATE_TYPE>
1
5
255

$$$$
