5356954
  -OEChem-05122609032D

 39 38  0     0  0  0  0  0  0999 V2000
    7.1962   -1.4400    0.0000 C   0  0  0  0  0  0  0  0  0  0  0  0
    6.3301   -1.9400    0.0000 C   0  0  0  0  0  0  0  0  0  0  0  0
    8.0622   -1.9400    0.0000 C   0  0  0  0  0  0  0  0  0  0  0  0
    5.4641   -1.4400    0.0000 C   0  0  0  0  0  0  0  0  0  0  0  0
    2.8660    0.0600    0.0000 C   0  0  0  0  0  0  0  0  0  0  0  0
    2.8660    1.0600    0.0000 C   0  0  0  0  0  0  0  0  0  0  0  0
    3.7321   -0.4400    0.0000 C   0  0  0  0  0  0  0  0  0  0  0  0
    8.9282   -1.4400    0.0000 C   0  0  0  0  0  0  0  0  0  0  0  0
    4.5981   -1.9400    0.0000 C   0  0  0  0  0  0  0  0  0  0  0  0
    2.0000    1.5600    0.0000 C   0  0  0  0  0  0  0  0  0  0  0  0
    3.7321   -1.4400    0.0000 C   0  0  0  0  0  0  0  0  0  0  0  0
    9.7942   -1.9400    0.0000 C   0  0  0  0  0  0  0  0  0  0  0  0
    2.0000    2.5600    0.0000 C   0  0  0  0  0  0  0  0  0  0  0  0
    7.5947   -0.9651    0.0000 H   0  0  0  0  0  0  0  0  0  0  0  0
    6.7976   -0.9651    0.0000 H   0  0  0  0  0  0  0  0  0  0  0  0
    5.9316   -2.4150    0.0000 H   0  0  0  0  0  0  0  0  0  0  0  0
    6.7287   -2.4150    0.0000 H   0  0  0  0  0  0  0  0  0  0  0  0
    7.6637   -2.4150    0.0000 H   0  0  0  0  0  0  0  0  0  0  0  0
    8.4607   -2.4150    0.0000 H   0  0  0  0  0  0  0  0  0  0  0  0
    5.8626   -0.9651    0.0000 H   0  0  0  0  0  0  0  0  0  0  0  0
    5.0656   -0.9651    0.0000 H   0  0  0  0  0  0  0  0  0  0  0  0
    2.2554    0.1677    0.0000 H   0  0  0  0  0  0  0  0  0  0  0  0
    2.6540   -0.5226    0.0000 H   0  0  0  0  0  0  0  0  0  0  0  0
    3.4766    0.9523    0.0000 H   0  0  0  0  0  0  0  0  0  0  0  0
    3.0781    1.6426    0.0000 H   0  0  0  0  0  0  0  0  0  0  0  0
    4.3426   -0.5477    0.0000 H   0  0  0  0  0  0  0  0  0  0  0  0
    3.9441    0.1426    0.0000 H   0  0  0  0  0  0  0  0  0  0  0  0
    9.3267   -0.9651    0.0000 H   0  0  0  0  0  0  0  0  0  0  0  0
    8.5297   -0.9651    0.0000 H   0  0  0  0  0  0  0  0  0  0  0  0
    4.5981   -2.5600    0.0000 H   0  0  0  0  0  0  0  0  0  0  0  0
    1.3894    1.6677    0.0000 H   0  0  0  0  0  0  0  0  0  0  0  0
    1.7880    0.9774    0.0000 H   0  0  0  0  0  0  0  0  0  0  0  0
    3.1951   -1.7500    0.0000 H   0  0  0  0  0  0  0  0  0  0  0  0
    9.4842   -2.4769    0.0000 H   0  0  0  0  0  0  0  0  0  0  0  0
   10.3312   -2.2500    0.0000 H   0  0  0  0  0  0  0  0  0  0  0  0
   10.1042   -1.4031    0.0000 H   0  0  0  0  0  0  0  0  0  0  0  0
    2.6200    2.5600    0.0000 H   0  0  0  0  0  0  0  0  0  0  0  0
    2.0000    3.1800    0.0000 H   0  0  0  0  0  0  0  0  0  0  0  0
    1.3800    2.5600    0.0000 H   0  0  0  0  0  0  0  0  0  0  0  0
  1  2  1  0  0  0  0
  1  3  1  0  0  0  0
  1 14  1  0  0  0  0
  1 15  1  0  0  0  0
  2  4  1  0  0  0  0
  2 16  1  0  0  0  0
  2 17  1  0  0  0  0
  3  8  1  0  0  0  0
  3 18  1  0  0  0  0
  3 19  1  0  0  0  0
  4  9  1  0  0  0  0
  4 20  1  0  0  0  0
  4 21  1  0  0  0  0
  5  6  1  0  0  0  0
  5  7  1  0  0  0  0
  5 22  1  0  0  0  0
  5 23  1  0  0  0  0
  6 10  1  0  0  0  0
  6 24  1  0  0  0  0
  6 25  1  0  0  0  0
  7 11  1  0  0  0  0
  7 26  1  0  0  0  0
  7 27  1  0  0  0  0
  8 12  1  0  0  0  0
  8 28  1  0  0  0  0
  8 29  1  0  0  0  0
  9 11  2  0  0  0  0
  9 30  1  0  0  0  0
 10 13  1  0  0  0  0
 10 31  1  0  0  0  0
 10 32  1  0  0  0  0
 11 33  1  0  0  0  0
 12 34  1  0  0  0  0
 12 35  1  0  0  0  0
 12 36  1  0  0  0  0
 13 37  1  0  0  0  0
 13 38  1  0  0  0  0
 13 39  1  0  0  0  0
M  END
> <PUBCHEM_COMPOUND_CID>
5356954

> <PUBCHEM_COMPOUND_CANONICALIZED>
1

> <PUBCHEM_CACTVS_COMPLEXITY>
103

> <PUBCHEM_CACTVS_HBOND_ACCEPTOR>
0

> <PUBCHEM_CACTVS_HBOND_DONOR>
0

> <PUBCHEM_CACTVS_ROTATABLE_BOND>
9

> <PUBCHEM_CACTVS_SUBSKEYS>
AAADceBwAAAAAAAAAAAAAAAAAAAAAAAAAAAAAAAAAAAAAAAAAAAAGAAAAAAACACAAAACAAAAAACAACBCAAAAAAAgAAAICAAAAAgAAAIAAQAAAAAAgAAIAAMAgAAAAAAAAAAAAAAAAAAAAAAAAAAAAAAAAA==

> <PUBCHEM_IUPAC_OPENEYE_NAME>
(Z)-tridec-6-ene

> <PUBCHEM_IUPAC_CAS_NAME>
(Z)-6-tridecene

> <PUBCHEM_IUPAC_NAME_MARKUP>
(<I>Z</I>)-tridec-6-ene

> <PUBCHEM_IUPAC_NAME>
(Z)-tridec-6-ene

> <PUBCHEM_IUPAC_SYSTEMATIC_NAME>
(Z)-tridec-6-ene

> <PUBCHEM_IUPAC_TRADITIONAL_NAME>
(Z)-tridec-6-ene

> <PUBCHEM_IUPAC_INCHI>
InChI=1S/C13H26/c1-3-5-7-9-11-13-12-10-8-6-4-2/h11,13H,3-10,12H2,1-2H3/b13-11-

> <PUBCHEM_IUPAC_INCHIKEY>
QHOMPCGOCNNMFK-QBFSEMIESA-N

> <PUBCHEM_XLOGP3_AA>
6.3

> <PUBCHEM_EXACT_MASS>
182.203450829

> <PUBCHEM_MOLECULAR_FORMULA>
C13H26

> <PUBCHEM_MOLECULAR_WEIGHT>
182.35

> <PUBCHEM_SMILES>
CCCCCC/C=C\CCCCC

> <PUBCHEM_CONNECTIVITY_SMILES>
CCCCCCC=CCCCCC

> <PUBCHEM_CACTVS_TPSA>
0

> <PUBCHEM_MONOISOTOPIC_WEIGHT>
182.203450829

> <PUBCHEM_TOTAL_CHARGE>
0

> <PUBCHEM_HEAVY_ATOM_COUNT>
13

> <PUBCHEM_ATOM_DEF_STEREO_COUNT>
0

> <PUBCHEM_ATOM_UDEF_STEREO_COUNT>
0

> <PUBCHEM_BOND_DEF_STEREO_COUNT>
1

> <PUBCHEM_BOND_UDEF_STEREO_COUNT>
0

> <PUBCHEM_ISOTOPIC_ATOM_COUNT>
0

> <PUBCHEM_COMPONENT_COUNT>
1

> <PUBCHEM_CACTVS_TAUTO_COUNT>
-1

> <PUBCHEM_COORDINATE_TYPE>
1
5
255

$$$$
