5359327
  -OEChem-05122608152D

  1  0  0     0  0  0  0  0  0999 V2000
    2.0000    0.0000    0.0000 Sr  0  0  0  0  0 15  0  0  0  0  0  0
M  END
> <PUBCHEM_COMPOUND_CID>
5359327

> <PUBCHEM_COMPOUND_CANONICALIZED>
1

> <PUBCHEM_CACTVS_COMPLEXITY>
0

> <PUBCHEM_CACTVS_HBOND_ACCEPTOR>
0

> <PUBCHEM_CACTVS_HBOND_DONOR>
0

> <PUBCHEM_CACTVS_ROTATABLE_BOND>
0

> <PUBCHEM_CACTVS_SUBSKEYS>
AAADcQAAAAAAAAAABAAAAAAAAAAAAAAAAAAAAAAAAAAAAAAAAAAAAAAAAAAAAAAAAAAAAAAAAAAAAAAAAAAAAAAAAAAAAAAAAAAAAAAAAAAAAAAAAAAAAAAAAAAAAAAAAAAAAAAAAAAAAAAAAAAAAAAAAA==

> <PUBCHEM_IUPAC_OPENEYE_NAME>
strontium

> <PUBCHEM_IUPAC_CAS_NAME>
strontium

> <PUBCHEM_IUPAC_NAME_MARKUP>
strontium

> <PUBCHEM_IUPAC_NAME>
strontium

> <PUBCHEM_IUPAC_SYSTEMATIC_NAME>
strontium

> <PUBCHEM_IUPAC_TRADITIONAL_NAME>
strontium

> <PUBCHEM_IUPAC_INCHI>
InChI=1S/Sr

> <PUBCHEM_IUPAC_INCHIKEY>
CIOAGBVUUVVLOB-UHFFFAOYSA-N

> <PUBCHEM_EXACT_MASS>
87.90561225

> <PUBCHEM_MOLECULAR_FORMULA>
Sr

> <PUBCHEM_MOLECULAR_WEIGHT>
87.62

> <PUBCHEM_SMILES>
[Sr]

> <PUBCHEM_CONNECTIVITY_SMILES>
[Sr]

> <PUBCHEM_CACTVS_TPSA>
0

> <PUBCHEM_MONOISOTOPIC_WEIGHT>
87.90561225

> <PUBCHEM_TOTAL_CHARGE>
0

> <PUBCHEM_HEAVY_ATOM_COUNT>
1

> <PUBCHEM_ATOM_DEF_STEREO_COUNT>
0

> <PUBCHEM_ATOM_UDEF_STEREO_COUNT>
0

> <PUBCHEM_BOND_DEF_STEREO_COUNT>
0

> <PUBCHEM_BOND_UDEF_STEREO_COUNT>
0

> <PUBCHEM_ISOTOPIC_ATOM_COUNT>
0

> <PUBCHEM_COMPONENT_COUNT>
1

> <PUBCHEM_CACTVS_TAUTO_COUNT>
-1

> <PUBCHEM_COORDINATE_TYPE>
1
5
255

$$$$
