5360835
  -OEChem-05122608362D

  1  0  0     0  0  0  0  0  0999 V2000
    2.0000    0.0000    0.0000 Ga  0  0  0  0  0 15  0  0  0  0  0  0
M  END
> <PUBCHEM_COMPOUND_CID>
5360835

> <PUBCHEM_COMPOUND_CANONICALIZED>
1

> <PUBCHEM_CACTVS_COMPLEXITY>
0

> <PUBCHEM_CACTVS_HBOND_ACCEPTOR>
0

> <PUBCHEM_CACTVS_HBOND_DONOR>
0

> <PUBCHEM_CACTVS_ROTATABLE_BOND>
0

> <PUBCHEM_CACTVS_SUBSKEYS>
AAADcQAAAAAAAAABAAAAAAAAAAAAAAAAAAAAAAAAAAAAAAAAAAAAAAAAAAAAAAAAAAAAAAAAAAAAAAAAAAAAAAAAAAAAAAAAAAAAAAAAAAAAAAAAAAAAAAAAAAAAAAAAAAAAAAAAAAAAAAAAAAAAAAAAAA==

> <PUBCHEM_IUPAC_OPENEYE_NAME>
gallium

> <PUBCHEM_IUPAC_CAS_NAME>
gallium

> <PUBCHEM_IUPAC_NAME_MARKUP>
gallium

> <PUBCHEM_IUPAC_NAME>
gallium

> <PUBCHEM_IUPAC_SYSTEMATIC_NAME>
gallium

> <PUBCHEM_IUPAC_TRADITIONAL_NAME>
gallium

> <PUBCHEM_IUPAC_INCHI>
InChI=1S/Ga

> <PUBCHEM_IUPAC_INCHIKEY>
GYHNNYVSQQEPJS-UHFFFAOYSA-N

> <PUBCHEM_EXACT_MASS>
68.92557

> <PUBCHEM_MOLECULAR_FORMULA>
Ga

> <PUBCHEM_MOLECULAR_WEIGHT>
69.723

> <PUBCHEM_SMILES>
[Ga]

> <PUBCHEM_CONNECTIVITY_SMILES>
[Ga]

> <PUBCHEM_CACTVS_TPSA>
0

> <PUBCHEM_MONOISOTOPIC_WEIGHT>
68.92557

> <PUBCHEM_TOTAL_CHARGE>
0

> <PUBCHEM_HEAVY_ATOM_COUNT>
1

> <PUBCHEM_ATOM_DEF_STEREO_COUNT>
0

> <PUBCHEM_ATOM_UDEF_STEREO_COUNT>
0

> <PUBCHEM_BOND_DEF_STEREO_COUNT>
0

> <PUBCHEM_BOND_UDEF_STEREO_COUNT>
0

> <PUBCHEM_ISOTOPIC_ATOM_COUNT>
0

> <PUBCHEM_COMPONENT_COUNT>
1

> <PUBCHEM_CACTVS_TAUTO_COUNT>
-1

> <PUBCHEM_COORDINATE_TYPE>
1
5
255

$$$$
