5362676
  -OEChem-05122609542D

 51 50  0     0  0  0  0  0  0999 V2000
    8.9282   -2.4400    0.0000 C   0  0  0  0  0  0  0  0  0  0  0  0
    8.0622   -2.9400    0.0000 C   0  0  0  0  0  0  0  0  0  0  0  0
    9.7942   -2.9400    0.0000 C   0  0  0  0  0  0  0  0  0  0  0  0
    7.1962   -2.4400    0.0000 C   0  0  0  0  0  0  0  0  0  0  0  0
   10.6603   -2.4400    0.0000 C   0  0  0  0  0  0  0  0  0  0  0  0
    6.3301   -2.9400    0.0000 C   0  0  0  0  0  0  0  0  0  0  0  0
   11.5263   -2.9400    0.0000 C   0  0  0  0  0  0  0  0  0  0  0  0
    5.4641   -2.4400    0.0000 C   0  0  0  0  0  0  0  0  0  0  0  0
   12.3923   -2.4400    0.0000 C   0  0  0  0  0  0  0  0  0  0  0  0
    4.5981   -2.9400    0.0000 C   0  0  0  0  0  0  0  0  0  0  0  0
    3.7321   -2.4400    0.0000 C   0  0  0  0  0  0  0  0  0  0  0  0
    3.7321   -1.4400    0.0000 C   0  0  0  0  0  0  0  0  0  0  0  0
    2.8660   -0.9400    0.0000 C   0  0  0  0  0  0  0  0  0  0  0  0
    2.8660    0.0600    0.0000 C   0  0  0  0  0  0  0  0  0  0  0  0
    3.7321    0.5600    0.0000 C   0  0  0  0  0  0  0  0  0  0  0  0
    3.7321    1.5600    0.0000 C   0  0  0  0  0  0  0  0  0  0  0  0
    2.8660    2.0600    0.0000 C   0  0  0  0  0  0  0  0  0  0  0  0
    2.8660    3.0600    0.0000 C   0  0  0  0  0  0  0  0  0  0  0  0
    2.0000    3.5600    0.0000 C   0  0  0  0  0  0  0  0  0  0  0  0
    9.3267   -1.9651    0.0000 H   0  0  0  0  0  0  0  0  0  0  0  0
    8.5297   -1.9651    0.0000 H   0  0  0  0  0  0  0  0  0  0  0  0
    7.6637   -3.4150    0.0000 H   0  0  0  0  0  0  0  0  0  0  0  0
    8.4607   -3.4150    0.0000 H   0  0  0  0  0  0  0  0  0  0  0  0
    9.3957   -3.4150    0.0000 H   0  0  0  0  0  0  0  0  0  0  0  0
   10.1928   -3.4150    0.0000 H   0  0  0  0  0  0  0  0  0  0  0  0
    7.5947   -1.9651    0.0000 H   0  0  0  0  0  0  0  0  0  0  0  0
    6.7976   -1.9651    0.0000 H   0  0  0  0  0  0  0  0  0  0  0  0
   11.0588   -1.9651    0.0000 H   0  0  0  0  0  0  0  0  0  0  0  0
   10.2617   -1.9651    0.0000 H   0  0  0  0  0  0  0  0  0  0  0  0
    5.9316   -3.4150    0.0000 H   0  0  0  0  0  0  0  0  0  0  0  0
    6.7287   -3.4150    0.0000 H   0  0  0  0  0  0  0  0  0  0  0  0
   11.1278   -3.4150    0.0000 H   0  0  0  0  0  0  0  0  0  0  0  0
   11.9248   -3.4150    0.0000 H   0  0  0  0  0  0  0  0  0  0  0  0
    5.8626   -1.9651    0.0000 H   0  0  0  0  0  0  0  0  0  0  0  0
    5.0656   -1.9651    0.0000 H   0  0  0  0  0  0  0  0  0  0  0  0
   12.7023   -2.9769    0.0000 H   0  0  0  0  0  0  0  0  0  0  0  0
   12.9292   -2.1300    0.0000 H   0  0  0  0  0  0  0  0  0  0  0  0
   12.0823   -1.9031    0.0000 H   0  0  0  0  0  0  0  0  0  0  0  0
    4.5981   -3.5600    0.0000 H   0  0  0  0  0  0  0  0  0  0  0  0
    3.1951   -2.7500    0.0000 H   0  0  0  0  0  0  0  0  0  0  0  0
    4.3426   -1.5477    0.0000 H   0  0  0  0  0  0  0  0  0  0  0  0
    3.9441   -0.8574    0.0000 H   0  0  0  0  0  0  0  0  0  0  0  0
    2.3291   -1.2500    0.0000 H   0  0  0  0  0  0  0  0  0  0  0  0
    2.3291    0.3700    0.0000 H   0  0  0  0  0  0  0  0  0  0  0  0
    4.2690    0.2500    0.0000 H   0  0  0  0  0  0  0  0  0  0  0  0
    4.2690    1.8700    0.0000 H   0  0  0  0  0  0  0  0  0  0  0  0
    2.2554    2.1677    0.0000 H   0  0  0  0  0  0  0  0  0  0  0  0
    2.6540    1.4774    0.0000 H   0  0  0  0  0  0  0  0  0  0  0  0
    3.4030    3.3700    0.0000 H   0  0  0  0  0  0  0  0  0  0  0  0
    2.0000    4.1800    0.0000 H   0  0  0  0  0  0  0  0  0  0  0  0
    1.4631    3.2500    0.0000 H   0  0  0  0  0  0  0  0  0  0  0  0
  1  2  1  0  0  0  0
  1  3  1  0  0  0  0
  1 20  1  0  0  0  0
  1 21  1  0  0  0  0
  2  4  1  0  0  0  0
  2 22  1  0  0  0  0
  2 23  1  0  0  0  0
  3  5  1  0  0  0  0
  3 24  1  0  0  0  0
  3 25  1  0  0  0  0
  4  6  1  0  0  0  0
  4 26  1  0  0  0  0
  4 27  1  0  0  0  0
  5  7  1  0  0  0  0
  5 28  1  0  0  0  0
  5 29  1  0  0  0  0
  6  8  1  0  0  0  0
  6 30  1  0  0  0  0
  6 31  1  0  0  0  0
  7  9  1  0  0  0  0
  7 32  1  0  0  0  0
  7 33  1  0  0  0  0
  8 10  1  0  0  0  0
  8 34  1  0  0  0  0
  8 35  1  0  0  0  0
  9 36  1  0  0  0  0
  9 37  1  0  0  0  0
  9 38  1  0  0  0  0
 10 11  2  0  0  0  0
 10 39  1  0  0  0  0
 11 12  1  0  0  0  0
 11 40  1  0  0  0  0
 12 13  1  0  0  0  0
 12 41  1  0  0  0  0
 12 42  1  0  0  0  0
 13 14  2  0  0  0  0
 13 43  1  0  0  0  0
 14 15  1  0  0  0  0
 14 44  1  0  0  0  0
 15 16  2  0  0  0  0
 15 45  1  0  0  0  0
 16 17  1  0  0  0  0
 16 46  1  0  0  0  0
 17 18  1  0  0  0  0
 17 47  1  0  0  0  0
 17 48  1  0  0  0  0
 18 19  2  0  0  0  0
 18 49  1  0  0  0  0
 19 50  1  0  0  0  0
 19 51  1  0  0  0  0
M  END
> <PUBCHEM_COMPOUND_CID>
5362676

> <PUBCHEM_COMPOUND_CANONICALIZED>
1

> <PUBCHEM_CACTVS_COMPLEXITY>
255

> <PUBCHEM_CACTVS_HBOND_ACCEPTOR>
0

> <PUBCHEM_CACTVS_HBOND_DONOR>
0

> <PUBCHEM_CACTVS_ROTATABLE_BOND>
13

> <PUBCHEM_CACTVS_SUBSKEYS>
AAADcfB4AAAAAAAAAAAAAAAAAAAAAAAAAAAAAAAAAAAAAAAAAAAAGAAAAAAACACAAAACAAAAAACAACBCAAAAAAAgAAAICAAAAAgIAAIAAQAAAAAAgAAIgAMAgIAAAAAAAAAAAAAAAAAAAAAAAAAAAAAAAA==

> <PUBCHEM_IUPAC_OPENEYE_NAME>
(4Z,6Z,9Z)-nonadeca-1,4,6,9-tetraene

> <PUBCHEM_IUPAC_CAS_NAME>
(4Z,6Z,9Z)-nonadeca-1,4,6,9-tetraene

> <PUBCHEM_IUPAC_NAME_MARKUP>
(4<I>Z</I>,6<I>Z</I>,9<I>Z</I>)-nonadeca-1,4,6,9-tetraene

> <PUBCHEM_IUPAC_NAME>
(4Z,6Z,9Z)-nonadeca-1,4,6,9-tetraene

> <PUBCHEM_IUPAC_SYSTEMATIC_NAME>
(4Z,6Z,9Z)-nonadeca-1,4,6,9-tetraene

> <PUBCHEM_IUPAC_TRADITIONAL_NAME>
(4Z,6Z,9Z)-nonadeca-1,4,6,9-tetraene

> <PUBCHEM_IUPAC_INCHI>
InChI=1S/C19H32/c1-3-5-7-9-11-13-15-17-19-18-16-14-12-10-8-6-4-2/h3,7,9,11,13,17,19H,1,4-6,8,10,12,14-16,18H2,2H3/b9-7-,13-11-,19-17-

> <PUBCHEM_IUPAC_INCHIKEY>
RUMHNRJFLJGRNU-FVRZMWRVSA-N

> <PUBCHEM_XLOGP3_AA>
8.2

> <PUBCHEM_EXACT_MASS>
260.250401021

> <PUBCHEM_MOLECULAR_FORMULA>
C19H32

> <PUBCHEM_MOLECULAR_WEIGHT>
260.5

> <PUBCHEM_SMILES>
CCCCCCCCC/C=C\C/C=C\C=C/CC=C

> <PUBCHEM_CONNECTIVITY_SMILES>
CCCCCCCCCC=CCC=CC=CCC=C

> <PUBCHEM_CACTVS_TPSA>
0

> <PUBCHEM_MONOISOTOPIC_WEIGHT>
260.250401021

> <PUBCHEM_TOTAL_CHARGE>
0

> <PUBCHEM_HEAVY_ATOM_COUNT>
19

> <PUBCHEM_ATOM_DEF_STEREO_COUNT>
0

> <PUBCHEM_ATOM_UDEF_STEREO_COUNT>
0

> <PUBCHEM_BOND_DEF_STEREO_COUNT>
3

> <PUBCHEM_BOND_UDEF_STEREO_COUNT>
0

> <PUBCHEM_ISOTOPIC_ATOM_COUNT>
0

> <PUBCHEM_COMPONENT_COUNT>
1

> <PUBCHEM_CACTVS_TAUTO_COUNT>
-1

> <PUBCHEM_COORDINATE_TYPE>
1
5
255

$$$$
