5362714
  -OEChem-05122609212D

 39 38  0     0  0  0  0  0  0999 V2000
    7.7331    0.0600    0.0000 C   0  0  0  0  0  0  0  0  0  0  0  0
    8.5991   -0.4400    0.0000 C   0  0  0  0  0  0  0  0  0  0  0  0
    6.8671   -0.4400    0.0000 C   0  0  0  0  0  0  0  0  0  0  0  0
    9.4651    0.0600    0.0000 C   0  0  0  0  0  0  0  0  0  0  0  0
    6.0010    0.0600    0.0000 C   0  0  0  0  0  0  0  0  0  0  0  0
   10.3312   -0.4400    0.0000 C   0  0  0  0  0  0  0  0  0  0  0  0
    5.1350   -0.4400    0.0000 C   0  0  0  0  0  0  0  0  0  0  0  0
   11.1972    0.0600    0.0000 C   0  0  0  0  0  0  0  0  0  0  0  0
    4.2690    0.0600    0.0000 C   0  0  0  0  0  0  0  0  0  0  0  0
   12.0632   -0.4400    0.0000 C   0  0  0  0  0  0  0  0  0  0  0  0
    3.4030   -0.4400    0.0000 C   0  0  0  0  0  0  0  0  0  0  0  0
    2.5369    0.0600    0.0000 C   0  0  0  0  0  0  0  0  0  0  0  0
    2.5369    1.0600    0.0000 C   0  0  0  0  0  0  0  0  0  0  0  0
    8.1316    0.5349    0.0000 H   0  0  0  0  0  0  0  0  0  0  0  0
    7.3346    0.5349    0.0000 H   0  0  0  0  0  0  0  0  0  0  0  0
    8.2006   -0.9149    0.0000 H   0  0  0  0  0  0  0  0  0  0  0  0
    8.9976   -0.9149    0.0000 H   0  0  0  0  0  0  0  0  0  0  0  0
    6.4685   -0.9149    0.0000 H   0  0  0  0  0  0  0  0  0  0  0  0
    7.2656   -0.9149    0.0000 H   0  0  0  0  0  0  0  0  0  0  0  0
    9.8637    0.5349    0.0000 H   0  0  0  0  0  0  0  0  0  0  0  0
    9.0666    0.5349    0.0000 H   0  0  0  0  0  0  0  0  0  0  0  0
    6.3996    0.5349    0.0000 H   0  0  0  0  0  0  0  0  0  0  0  0
    5.6025    0.5349    0.0000 H   0  0  0  0  0  0  0  0  0  0  0  0
    9.9326   -0.9149    0.0000 H   0  0  0  0  0  0  0  0  0  0  0  0
   10.7297   -0.9149    0.0000 H   0  0  0  0  0  0  0  0  0  0  0  0
    4.7365   -0.9149    0.0000 H   0  0  0  0  0  0  0  0  0  0  0  0
    5.5335   -0.9149    0.0000 H   0  0  0  0  0  0  0  0  0  0  0  0
   11.5957    0.5349    0.0000 H   0  0  0  0  0  0  0  0  0  0  0  0
   10.7987    0.5349    0.0000 H   0  0  0  0  0  0  0  0  0  0  0  0
    4.6675    0.5349    0.0000 H   0  0  0  0  0  0  0  0  0  0  0  0
    3.8705    0.5349    0.0000 H   0  0  0  0  0  0  0  0  0  0  0  0
   11.7532   -0.9769    0.0000 H   0  0  0  0  0  0  0  0  0  0  0  0
   12.6002   -0.7500    0.0000 H   0  0  0  0  0  0  0  0  0  0  0  0
   12.3732    0.0969    0.0000 H   0  0  0  0  0  0  0  0  0  0  0  0
    3.4030   -1.0600    0.0000 H   0  0  0  0  0  0  0  0  0  0  0  0
    2.0000   -0.2500    0.0000 H   0  0  0  0  0  0  0  0  0  0  0  0
    3.1569    1.0600    0.0000 H   0  0  0  0  0  0  0  0  0  0  0  0
    2.5369    1.6800    0.0000 H   0  0  0  0  0  0  0  0  0  0  0  0
    1.9169    1.0600    0.0000 H   0  0  0  0  0  0  0  0  0  0  0  0
  1  2  1  0  0  0  0
  1  3  1  0  0  0  0
  1 14  1  0  0  0  0
  1 15  1  0  0  0  0
  2  4  1  0  0  0  0
  2 16  1  0  0  0  0
  2 17  1  0  0  0  0
  3  5  1  0  0  0  0
  3 18  1  0  0  0  0
  3 19  1  0  0  0  0
  4  6  1  0  0  0  0
  4 20  1  0  0  0  0
  4 21  1  0  0  0  0
  5  7  1  0  0  0  0
  5 22  1  0  0  0  0
  5 23  1  0  0  0  0
  6  8  1  0  0  0  0
  6 24  1  0  0  0  0
  6 25  1  0  0  0  0
  7  9  1  0  0  0  0
  7 26  1  0  0  0  0
  7 27  1  0  0  0  0
  8 10  1  0  0  0  0
  8 28  1  0  0  0  0
  8 29  1  0  0  0  0
  9 11  1  0  0  0  0
  9 30  1  0  0  0  0
  9 31  1  0  0  0  0
 10 32  1  0  0  0  0
 10 33  1  0  0  0  0
 10 34  1  0  0  0  0
 11 12  2  0  0  0  0
 11 35  1  0  0  0  0
 12 13  1  0  0  0  0
 12 36  1  0  0  0  0
 13 37  1  0  0  0  0
 13 38  1  0  0  0  0
 13 39  1  0  0  0  0
M  END
> <PUBCHEM_COMPOUND_CID>
5362714

> <PUBCHEM_COMPOUND_CANONICALIZED>
1

> <PUBCHEM_CACTVS_COMPLEXITY>
103

> <PUBCHEM_CACTVS_HBOND_ACCEPTOR>
0

> <PUBCHEM_CACTVS_HBOND_DONOR>
0

> <PUBCHEM_CACTVS_ROTATABLE_BOND>
9

> <PUBCHEM_CACTVS_SUBSKEYS>
AAADceBwAAAAAAAAAAAAAAAAAAAAAAAAAAAAAAAAAAAAAAAAAAAAGAAAAAAACACAAAACAAAAAACAACBCAAAAAAAgAAAICAAAAAgAAAIAAQAAAAAAgAAIAAMAgIAAAAAAAAAAAAAAAAAAAAAAAAAAAAAAAA==

> <PUBCHEM_IUPAC_OPENEYE_NAME>
(Z)-tridec-2-ene

> <PUBCHEM_IUPAC_CAS_NAME>
(Z)-2-tridecene

> <PUBCHEM_IUPAC_NAME_MARKUP>
(<I>Z</I>)-tridec-2-ene

> <PUBCHEM_IUPAC_NAME>
(Z)-tridec-2-ene

> <PUBCHEM_IUPAC_SYSTEMATIC_NAME>
(Z)-tridec-2-ene

> <PUBCHEM_IUPAC_TRADITIONAL_NAME>
(Z)-tridec-2-ene

> <PUBCHEM_IUPAC_INCHI>
InChI=1S/C13H26/c1-3-5-7-9-11-13-12-10-8-6-4-2/h3,5H,4,6-13H2,1-2H3/b5-3-

> <PUBCHEM_IUPAC_INCHIKEY>
XWVHBWQEYOROBE-HYXAFXHYSA-N

> <PUBCHEM_XLOGP3>
7

> <PUBCHEM_EXACT_MASS>
182.203450829

> <PUBCHEM_MOLECULAR_FORMULA>
C13H26

> <PUBCHEM_MOLECULAR_WEIGHT>
182.35

> <PUBCHEM_SMILES>
CCCCCCCCCC/C=C\C

> <PUBCHEM_CONNECTIVITY_SMILES>
CCCCCCCCCCC=CC

> <PUBCHEM_CACTVS_TPSA>
0

> <PUBCHEM_MONOISOTOPIC_WEIGHT>
182.203450829

> <PUBCHEM_TOTAL_CHARGE>
0

> <PUBCHEM_HEAVY_ATOM_COUNT>
13

> <PUBCHEM_ATOM_DEF_STEREO_COUNT>
0

> <PUBCHEM_ATOM_UDEF_STEREO_COUNT>
0

> <PUBCHEM_BOND_DEF_STEREO_COUNT>
1

> <PUBCHEM_BOND_UDEF_STEREO_COUNT>
0

> <PUBCHEM_ISOTOPIC_ATOM_COUNT>
0

> <PUBCHEM_COMPONENT_COUNT>
1

> <PUBCHEM_CACTVS_TAUTO_COUNT>
-1

> <PUBCHEM_COORDINATE_TYPE>
1
5
255

$$$$
