5363234
  -OEChem-08032615172D

 84 83  0     0  0  0  0  0  0999 V2000
   14.1244   -2.2500    0.0000 O   0  0  0  0  0  0  0  0  0  0  0  0
   13.2583   -3.7500    0.0000 O   0  0  0  0  0  0  0  0  0  0  0  0
   18.4545   -2.7500    0.0000 C   0  0  0  0  0  0  0  0  0  0  0  0
   19.3205   -2.2500    0.0000 C   0  0  0  0  0  0  0  0  0  0  0  0
   17.5885   -2.2500    0.0000 C   0  0  0  0  0  0  0  0  0  0  0  0
   20.1865   -2.7500    0.0000 C   0  0  0  0  0  0  0  0  0  0  0  0
   16.7224   -2.7500    0.0000 C   0  0  0  0  0  0  0  0  0  0  0  0
    9.7942   -2.7500    0.0000 C   0  0  0  0  0  0  0  0  0  0  0  0
    8.9282   -2.2500    0.0000 C   0  0  0  0  0  0  0  0  0  0  0  0
   10.6603   -2.2500    0.0000 C   0  0  0  0  0  0  0  0  0  0  0  0
    3.7321    0.7500    0.0000 C   0  0  0  0  0  0  0  0  0  0  0  0
    4.5981    0.2500    0.0000 C   0  0  0  0  0  0  0  0  0  0  0  0
   21.0526   -2.2500    0.0000 C   0  0  0  0  0  0  0  0  0  0  0  0
   15.8564   -2.2500    0.0000 C   0  0  0  0  0  0  0  0  0  0  0  0
    8.0622   -2.7500    0.0000 C   0  0  0  0  0  0  0  0  0  0  0  0
    3.7321    1.7500    0.0000 C   0  0  0  0  0  0  0  0  0  0  0  0
    4.5981   -0.7500    0.0000 C   0  0  0  0  0  0  0  0  0  0  0  0
   11.5263   -2.7500    0.0000 C   0  0  0  0  0  0  0  0  0  0  0  0
    7.1962   -2.2500    0.0000 C   0  0  0  0  0  0  0  0  0  0  0  0
    2.8660    2.2500    0.0000 C   0  0  0  0  0  0  0  0  0  0  0  0
    5.4641   -1.2500    0.0000 C   0  0  0  0  0  0  0  0  0  0  0  0
   21.9186   -2.7500    0.0000 C   0  0  0  0  0  0  0  0  0  0  0  0
   14.9904   -2.7500    0.0000 C   0  0  0  0  0  0  0  0  0  0  0  0
   12.3923   -2.2500    0.0000 C   0  0  0  0  0  0  0  0  0  0  0  0
    2.8660    3.2500    0.0000 C   0  0  0  0  0  0  0  0  0  0  0  0
    6.3301   -2.7500    0.0000 C   0  0  0  0  0  0  0  0  0  0  0  0
    5.4641   -2.2500    0.0000 C   0  0  0  0  0  0  0  0  0  0  0  0
   13.2583   -2.7500    0.0000 C   0  0  0  0  0  0  0  0  0  0  0  0
   22.7846   -2.2500    0.0000 C   0  0  0  0  0  0  0  0  0  0  0  0
    2.0000    3.7500    0.0000 C   0  0  0  0  0  0  0  0  0  0  0  0
   18.0560   -3.2250    0.0000 H   0  0  0  0  0  0  0  0  0  0  0  0
   18.8530   -3.2250    0.0000 H   0  0  0  0  0  0  0  0  0  0  0  0
   19.7190   -1.7751    0.0000 H   0  0  0  0  0  0  0  0  0  0  0  0
   18.9220   -1.7751    0.0000 H   0  0  0  0  0  0  0  0  0  0  0  0
   17.9870   -1.7751    0.0000 H   0  0  0  0  0  0  0  0  0  0  0  0
   17.1899   -1.7751    0.0000 H   0  0  0  0  0  0  0  0  0  0  0  0
   19.7880   -3.2250    0.0000 H   0  0  0  0  0  0  0  0  0  0  0  0
   20.5851   -3.2250    0.0000 H   0  0  0  0  0  0  0  0  0  0  0  0
   16.3239   -3.2250    0.0000 H   0  0  0  0  0  0  0  0  0  0  0  0
   17.1210   -3.2250    0.0000 H   0  0  0  0  0  0  0  0  0  0  0  0
    9.3957   -3.2250    0.0000 H   0  0  0  0  0  0  0  0  0  0  0  0
   10.1928   -3.2250    0.0000 H   0  0  0  0  0  0  0  0  0  0  0  0
    9.3267   -1.7751    0.0000 H   0  0  0  0  0  0  0  0  0  0  0  0
    8.5297   -1.7751    0.0000 H   0  0  0  0  0  0  0  0  0  0  0  0
   11.0588   -1.7751    0.0000 H   0  0  0  0  0  0  0  0  0  0  0  0
   10.2617   -1.7751    0.0000 H   0  0  0  0  0  0  0  0  0  0  0  0
    3.1215    0.8577    0.0000 H   0  0  0  0  0  0  0  0  0  0  0  0
    3.5200    0.1674    0.0000 H   0  0  0  0  0  0  0  0  0  0  0  0
    5.2087    0.1423    0.0000 H   0  0  0  0  0  0  0  0  0  0  0  0
    4.8101    0.8326    0.0000 H   0  0  0  0  0  0  0  0  0  0  0  0
   21.4511   -1.7751    0.0000 H   0  0  0  0  0  0  0  0  0  0  0  0
   20.6540   -1.7751    0.0000 H   0  0  0  0  0  0  0  0  0  0  0  0
   16.2549   -1.7751    0.0000 H   0  0  0  0  0  0  0  0  0  0  0  0
   15.4579   -1.7751    0.0000 H   0  0  0  0  0  0  0  0  0  0  0  0
    7.6637   -3.2250    0.0000 H   0  0  0  0  0  0  0  0  0  0  0  0
    8.4607   -3.2250    0.0000 H   0  0  0  0  0  0  0  0  0  0  0  0
    4.3426    1.6423    0.0000 H   0  0  0  0  0  0  0  0  0  0  0  0
    3.9441    2.3326    0.0000 H   0  0  0  0  0  0  0  0  0  0  0  0
    3.9875   -0.6423    0.0000 H   0  0  0  0  0  0  0  0  0  0  0  0
    4.3860   -1.3326    0.0000 H   0  0  0  0  0  0  0  0  0  0  0  0
   11.1278   -3.2250    0.0000 H   0  0  0  0  0  0  0  0  0  0  0  0
   11.9248   -3.2250    0.0000 H   0  0  0  0  0  0  0  0  0  0  0  0
    2.2554    2.3577    0.0000 H   0  0  0  0  0  0  0  0  0  0  0  0
    2.6540    1.6674    0.0000 H   0  0  0  0  0  0  0  0  0  0  0  0
    7.5947   -1.7751    0.0000 H   0  0  0  0  0  0  0  0  0  0  0  0
    6.7976   -1.7751    0.0000 H   0  0  0  0  0  0  0  0  0  0  0  0
    6.0747   -1.3577    0.0000 H   0  0  0  0  0  0  0  0  0  0  0  0
    5.6762   -0.6674    0.0000 H   0  0  0  0  0  0  0  0  0  0  0  0
   21.5201   -3.2250    0.0000 H   0  0  0  0  0  0  0  0  0  0  0  0
   22.3171   -3.2250    0.0000 H   0  0  0  0  0  0  0  0  0  0  0  0
   14.5919   -3.2250    0.0000 H   0  0  0  0  0  0  0  0  0  0  0  0
   15.3889   -3.2250    0.0000 H   0  0  0  0  0  0  0  0  0  0  0  0
   12.7908   -1.7751    0.0000 H   0  0  0  0  0  0  0  0  0  0  0  0
   11.9938   -1.7751    0.0000 H   0  0  0  0  0  0  0  0  0  0  0  0
    3.4766    3.1423    0.0000 H   0  0  0  0  0  0  0  0  0  0  0  0
    3.0781    3.8326    0.0000 H   0  0  0  0  0  0  0  0  0  0  0  0
    6.3301   -3.3700    0.0000 H   0  0  0  0  0  0  0  0  0  0  0  0
    4.9272   -2.5600    0.0000 H   0  0  0  0  0  0  0  0  0  0  0  0
   23.0946   -2.7869    0.0000 H   0  0  0  0  0  0  0  0  0  0  0  0
   23.3215   -1.9400    0.0000 H   0  0  0  0  0  0  0  0  0  0  0  0
   22.4746   -1.7131    0.0000 H   0  0  0  0  0  0  0  0  0  0  0  0
    2.3100    4.2869    0.0000 H   0  0  0  0  0  0  0  0  0  0  0  0
    1.4631    4.0600    0.0000 H   0  0  0  0  0  0  0  0  0  0  0  0
    1.6900    3.2131    0.0000 H   0  0  0  0  0  0  0  0  0  0  0  0
  1 23  1  0  0  0  0
  1 28  1  0  0  0  0
  2 28  2  0  0  0  0
  3  4  1  0  0  0  0
  3  5  1  0  0  0  0
  3 31  1  0  0  0  0
  3 32  1  0  0  0  0
  4  6  1  0  0  0  0
  4 33  1  0  0  0  0
  4 34  1  0  0  0  0
  5  7  1  0  0  0  0
  5 35  1  0  0  0  0
  5 36  1  0  0  0  0
  6 13  1  0  0  0  0
  6 37  1  0  0  0  0
  6 38  1  0  0  0  0
  7 14  1  0  0  0  0
  7 39  1  0  0  0  0
  7 40  1  0  0  0  0
  8  9  1  0  0  0  0
  8 10  1  0  0  0  0
  8 41  1  0  0  0  0
  8 42  1  0  0  0  0
  9 15  1  0  0  0  0
  9 43  1  0  0  0  0
  9 44  1  0  0  0  0
 10 18  1  0  0  0  0
 10 45  1  0  0  0  0
 10 46  1  0  0  0  0
 11 12  1  0  0  0  0
 11 16  1  0  0  0  0
 11 47  1  0  0  0  0
 11 48  1  0  0  0  0
 12 17  1  0  0  0  0
 12 49  1  0  0  0  0
 12 50  1  0  0  0  0
 13 22  1  0  0  0  0
 13 51  1  0  0  0  0
 13 52  1  0  0  0  0
 14 23  1  0  0  0  0
 14 53  1  0  0  0  0
 14 54  1  0  0  0  0
 15 19  1  0  0  0  0
 15 55  1  0  0  0  0
 15 56  1  0  0  0  0
 16 20  1  0  0  0  0
 16 57  1  0  0  0  0
 16 58  1  0  0  0  0
 17 21  1  0  0  0  0
 17 59  1  0  0  0  0
 17 60  1  0  0  0  0
 18 24  1  0  0  0  0
 18 61  1  0  0  0  0
 18 62  1  0  0  0  0
 19 26  1  0  0  0  0
 19 65  1  0  0  0  0
 19 66  1  0  0  0  0
 20 25  1  0  0  0  0
 20 63  1  0  0  0  0
 20 64  1  0  0  0  0
 21 27  1  0  0  0  0
 21 67  1  0  0  0  0
 21 68  1  0  0  0  0
 22 29  1  0  0  0  0
 22 69  1  0  0  0  0
 22 70  1  0  0  0  0
 23 71  1  0  0  0  0
 23 72  1  0  0  0  0
 24 28  1  0  0  0  0
 24 73  1  0  0  0  0
 24 74  1  0  0  0  0
 25 30  1  0  0  0  0
 25 75  1  0  0  0  0
 25 76  1  0  0  0  0
 26 27  2  0  0  0  0
 26 77  1  0  0  0  0
 27 78  1  0  0  0  0
 29 79  1  0  0  0  0
 29 80  1  0  0  0  0
 29 81  1  0  0  0  0
 30 82  1  0  0  0  0
 30 83  1  0  0  0  0
 30 84  1  0  0  0  0
M  END
> <PUBCHEM_COMPOUND_CID>
5363234

> <PUBCHEM_COMPOUND_CANONICALIZED>
1

> <PUBCHEM_CACTVS_COMPLEXITY>
362

> <PUBCHEM_CACTVS_HBOND_ACCEPTOR>
2

> <PUBCHEM_CACTVS_HBOND_DONOR>
0

> <PUBCHEM_CACTVS_ROTATABLE_BOND>
25

> <PUBCHEM_CACTVS_SUBSKEYS>
AAADcfB4MAAAAAAAAAAAAAAAAAAAAAAAAAAAAAAAAAAAAAAAAAAAGgAAAAAACACggAICCAAABACIACDSCAAAAAAgAAAICAEAAAgAABIAAQACAAAEgAAIAAOIyKCAAAAAAAAAAAAAAAAAAAAAAAAAAAAAAA==

> <PUBCHEM_IUPAC_OPENEYE_NAME>
decyl (Z)-octadec-9-enoate

> <PUBCHEM_IUPAC_CAS_NAME>
(Z)-9-octadecenoic acid decyl ester

> <PUBCHEM_IUPAC_NAME_MARKUP>
decyl (<I>Z</I>)-octadec-9-enoate

> <PUBCHEM_IUPAC_NAME>
decyl (Z)-octadec-9-enoate

> <PUBCHEM_IUPAC_SYSTEMATIC_NAME>
decyl (Z)-octadec-9-enoate

> <PUBCHEM_IUPAC_TRADITIONAL_NAME>
(Z)-octadec-9-enoic acid decyl ester

> <PUBCHEM_IUPAC_INCHI>
InChI=1S/C28H54O2/c1-3-5-7-9-11-13-14-15-16-17-18-19-20-22-24-26-28(29)30-27-25-23-21-12-10-8-6-4-2/h15-16H,3-14,17-27H2,1-2H3/b16-15-

> <PUBCHEM_IUPAC_INCHIKEY>
SASYSVUEVMOWPL-NXVVXOECSA-N

> <PUBCHEM_XLOGP3_AA>
12.1

> <PUBCHEM_EXACT_MASS>
422.412380961

> <PUBCHEM_MOLECULAR_FORMULA>
C28H54O2

> <PUBCHEM_MOLECULAR_WEIGHT>
422.7

> <PUBCHEM_SMILES>
CCCCCCCCCCOC(=O)CCCCCCC/C=C\CCCCCCCC

> <PUBCHEM_CONNECTIVITY_SMILES>
CCCCCCCCCCOC(=O)CCCCCCCC=CCCCCCCCC

> <PUBCHEM_CACTVS_TPSA>
26.3

> <PUBCHEM_MONOISOTOPIC_WEIGHT>
422.412380961

> <PUBCHEM_TOTAL_CHARGE>
0

> <PUBCHEM_HEAVY_ATOM_COUNT>
30

> <PUBCHEM_ATOM_DEF_STEREO_COUNT>
0

> <PUBCHEM_ATOM_UDEF_STEREO_COUNT>
0

> <PUBCHEM_BOND_DEF_STEREO_COUNT>
1

> <PUBCHEM_BOND_UDEF_STEREO_COUNT>
0

> <PUBCHEM_ISOTOPIC_ATOM_COUNT>
0

> <PUBCHEM_COMPONENT_COUNT>
1

> <PUBCHEM_CACTVS_TAUTO_COUNT>
-1

> <PUBCHEM_COORDINATE_TYPE>
1
5
255

$$$$
