5363633
  -OEChem-05122609522D

 47 47  0     1  0  0  0  0  0999 V2000
    3.9030   -5.9330    0.0000 O   0  0  0  0  0  0  0  0  0  0  0  0
    7.7331    4.4330    0.0000 O   0  0  0  0  0  0  0  0  0  0  0  0
    6.8671    5.9330    0.0000 O   0  0  0  0  0  0  0  0  0  0  0  0
    5.1350   -0.0670    0.0000 C   0  0  0  0  0  0  0  0  0  0  0  0
    4.2690   -0.5670    0.0000 C   0  0  0  0  0  0  0  0  0  0  0  0
    5.1350    0.9330    0.0000 C   0  0  0  0  0  0  0  0  0  0  0  0
    4.2690   -1.5670    0.0000 C   0  0  0  0  0  0  0  0  0  0  0  0
    6.0010    1.4330    0.0000 C   0  0  0  0  0  0  0  0  0  0  0  0
    3.4030   -2.0670    0.0000 C   0  0  0  0  0  0  0  0  0  0  0  0
    6.0010    2.4330    0.0000 C   0  0  0  0  0  0  0  0  0  0  0  0
    3.4030   -5.0670    0.0000 C   0  0  3  0  0  0  0  0  0  0  0  0
    3.4030   -3.0670    0.0000 C   0  0  0  0  0  0  0  0  0  0  0  0
    4.4030   -5.0670    0.0000 C   0  0  0  0  0  0  0  0  0  0  0  0
    6.8671    2.9330    0.0000 C   0  0  0  0  0  0  0  0  0  0  0  0
    2.5369   -4.5670    0.0000 C   0  0  0  0  0  0  0  0  0  0  0  0
    2.5369   -3.5670    0.0000 C   0  0  0  0  0  0  0  0  0  0  0  0
    6.8671    3.9330    0.0000 C   0  0  0  0  0  0  0  0  0  0  0  0
    7.7331    5.4330    0.0000 C   0  0  0  0  0  0  0  0  0  0  0  0
    8.5991    5.9330    0.0000 C   0  0  0  0  0  0  0  0  0  0  0  0
    5.3471   -0.6496    0.0000 H   0  0  0  0  0  0  0  0  0  0  0  0
    5.7456    0.0407    0.0000 H   0  0  0  0  0  0  0  0  0  0  0  0
    4.0569    0.0156    0.0000 H   0  0  0  0  0  0  0  0  0  0  0  0
    3.6584   -0.6746    0.0000 H   0  0  0  0  0  0  0  0  0  0  0  0
    4.9230    1.5156    0.0000 H   0  0  0  0  0  0  0  0  0  0  0  0
    4.5244    0.8254    0.0000 H   0  0  0  0  0  0  0  0  0  0  0  0
    4.4810   -2.1496    0.0000 H   0  0  0  0  0  0  0  0  0  0  0  0
    4.8796   -1.4593    0.0000 H   0  0  0  0  0  0  0  0  0  0  0  0
    6.2131    0.8504    0.0000 H   0  0  0  0  0  0  0  0  0  0  0  0
    6.6116    1.5407    0.0000 H   0  0  0  0  0  0  0  0  0  0  0  0
    3.1909   -1.4844    0.0000 H   0  0  0  0  0  0  0  0  0  0  0  0
    2.7924   -2.1747    0.0000 H   0  0  0  0  0  0  0  0  0  0  0  0
    5.7890    3.0156    0.0000 H   0  0  0  0  0  0  0  0  0  0  0  0
    5.3905    2.3253    0.0000 H   0  0  0  0  0  0  0  0  0  0  0  0
    2.9646   -5.5054    0.0000 H   0  0  0  0  0  0  0  0  0  0  0  0
    3.6150   -3.6496    0.0000 H   0  0  0  0  0  0  0  0  0  0  0  0
    4.0135   -2.9593    0.0000 H   0  0  0  0  0  0  0  0  0  0  0  0
    4.9856   -5.2790    0.0000 H   0  0  0  0  0  0  0  0  0  0  0  0
    4.5106   -4.4564    0.0000 H   0  0  0  0  0  0  0  0  0  0  0  0
    7.0791    2.3504    0.0000 H   0  0  0  0  0  0  0  0  0  0  0  0
    7.4776    3.0407    0.0000 H   0  0  0  0  0  0  0  0  0  0  0  0
    2.0000   -4.8770    0.0000 H   0  0  0  0  0  0  0  0  0  0  0  0
    2.0000   -3.2570    0.0000 H   0  0  0  0  0  0  0  0  0  0  0  0
    6.6550    4.5156    0.0000 H   0  0  0  0  0  0  0  0  0  0  0  0
    6.2565    3.8254    0.0000 H   0  0  0  0  0  0  0  0  0  0  0  0
    8.9091    5.3961    0.0000 H   0  0  0  0  0  0  0  0  0  0  0  0
    9.1360    6.2430    0.0000 H   0  0  0  0  0  0  0  0  0  0  0  0
    8.2891    6.4700    0.0000 H   0  0  0  0  0  0  0  0  0  0  0  0
  1 11  1  0  0  0  0
  1 13  1  0  0  0  0
  2 17  1  0  0  0  0
  2 18  1  0  0  0  0
  3 18  2  0  0  0  0
  4  5  1  0  0  0  0
  4  6  1  0  0  0  0
  4 20  1  0  0  0  0
  4 21  1  0  0  0  0
  5  7  1  0  0  0  0
  5 22  1  0  0  0  0
  5 23  1  0  0  0  0
  6  8  1  0  0  0  0
  6 24  1  0  0  0  0
  6 25  1  0  0  0  0
  7  9  1  0  0  0  0
  7 26  1  0  0  0  0
  7 27  1  0  0  0  0
  8 10  1  0  0  0  0
  8 28  1  0  0  0  0
  8 29  1  0  0  0  0
  9 12  1  0  0  0  0
  9 30  1  0  0  0  0
  9 31  1  0  0  0  0
 10 14  1  0  0  0  0
 10 32  1  0  0  0  0
 10 33  1  0  0  0  0
 11 13  1  0  0  0  0
 11 15  1  0  0  0  0
 11 34  1  0  0  0  0
 12 16  1  0  0  0  0
 12 35  1  0  0  0  0
 12 36  1  0  0  0  0
 13 37  1  0  0  0  0
 13 38  1  0  0  0  0
 14 17  1  0  0  0  0
 14 39  1  0  0  0  0
 14 40  1  0  0  0  0
 15 16  2  0  0  0  0
 15 41  1  0  0  0  0
 16 42  1  0  0  0  0
 17 43  1  0  0  0  0
 17 44  1  0  0  0  0
 18 19  1  0  0  0  0
 19 45  1  0  0  0  0
 19 46  1  0  0  0  0
 19 47  1  0  0  0  0
M  END
> <PUBCHEM_COMPOUND_CID>
5363633

> <PUBCHEM_COMPOUND_CANONICALIZED>
1

> <PUBCHEM_CACTVS_COMPLEXITY>
261

> <PUBCHEM_CACTVS_HBOND_ACCEPTOR>
3

> <PUBCHEM_CACTVS_HBOND_DONOR>
0

> <PUBCHEM_CACTVS_ROTATABLE_BOND>
13

> <PUBCHEM_CACTVS_SUBSKEYS>
AAADceB4MAAAAAAAAAAAAAAAEgAAAAAAAAAAAAAAAAAAAAAAAAAAGgAAAAAACBSggAICCAAABACIACDSCAAAAAAgAAAICAAAAAgABAIAIQACEAAEwAAIIAOAwKAAAAAAAAAAAAAAAAAAAAAAAAAAAAAAAA==

> <PUBCHEM_IUPAC_OPENEYE_NAME>
[(Z)-12-(oxiran-2-yl)dodec-11-enyl] acetate

> <PUBCHEM_IUPAC_CAS_NAME>
acetic acid [(Z)-12-(2-oxiranyl)dodec-11-enyl] ester

> <PUBCHEM_IUPAC_NAME_MARKUP>
[(<I>Z</I>)-12-(oxiran-2-yl)dodec-11-enyl] acetate

> <PUBCHEM_IUPAC_NAME>
[(Z)-12-(oxiran-2-yl)dodec-11-enyl] acetate

> <PUBCHEM_IUPAC_SYSTEMATIC_NAME>
[(Z)-12-(oxiran-2-yl)dodec-11-enyl] ethanoate

> <PUBCHEM_IUPAC_TRADITIONAL_NAME>
acetic acid [(Z)-12-(oxiran-2-yl)dodec-11-enyl] ester

> <PUBCHEM_IUPAC_INCHI>
InChI=1S/C16H28O3/c1-15(17)18-13-11-9-7-5-3-2-4-6-8-10-12-16-14-19-16/h10,12,16H,2-9,11,13-14H2,1H3/b12-10-

> <PUBCHEM_IUPAC_INCHIKEY>
SSNSHVODQWMOJI-BENRWUELSA-N

> <PUBCHEM_XLOGP3_AA>
4.5

> <PUBCHEM_EXACT_MASS>
268.20384475

> <PUBCHEM_MOLECULAR_FORMULA>
C16H28O3

> <PUBCHEM_MOLECULAR_WEIGHT>
268.39

> <PUBCHEM_SMILES>
CC(=O)OCCCCCCCCCC/C=C\C1CO1

> <PUBCHEM_CONNECTIVITY_SMILES>
CC(=O)OCCCCCCCCCCC=CC1CO1

> <PUBCHEM_CACTVS_TPSA>
38.8

> <PUBCHEM_MONOISOTOPIC_WEIGHT>
268.20384475

> <PUBCHEM_TOTAL_CHARGE>
0

> <PUBCHEM_HEAVY_ATOM_COUNT>
19

> <PUBCHEM_ATOM_DEF_STEREO_COUNT>
0

> <PUBCHEM_ATOM_UDEF_STEREO_COUNT>
1

> <PUBCHEM_BOND_DEF_STEREO_COUNT>
1

> <PUBCHEM_BOND_UDEF_STEREO_COUNT>
0

> <PUBCHEM_ISOTOPIC_ATOM_COUNT>
0

> <PUBCHEM_COMPONENT_COUNT>
1

> <PUBCHEM_CACTVS_TAUTO_COUNT>
-1

> <PUBCHEM_COORDINATE_TYPE>
1
5
255

> <PUBCHEM_BONDANNOTATIONS>
11  15  3

$$$$
