5364437
  -OEChem-05122609052D

 39 38  0     0  0  0  0  0  0999 V2000
    7.1962    0.9400    0.0000 C   0  0  0  0  0  0  0  0  0  0  0  0
    8.0622    1.4400    0.0000 C   0  0  0  0  0  0  0  0  0  0  0  0
    6.3301    1.4400    0.0000 C   0  0  0  0  0  0  0  0  0  0  0  0
    8.9282    0.9400    0.0000 C   0  0  0  0  0  0  0  0  0  0  0  0
    5.4641    0.9400    0.0000 C   0  0  0  0  0  0  0  0  0  0  0  0
    9.7942    1.4400    0.0000 C   0  0  0  0  0  0  0  0  0  0  0  0
    4.5981    1.4400    0.0000 C   0  0  0  0  0  0  0  0  0  0  0  0
    3.7320   -0.0600    0.0000 C   0  0  0  0  0  0  0  0  0  0  0  0
    2.8660   -0.5600    0.0000 C   0  0  0  0  0  0  0  0  0  0  0  0
    3.7320    0.9400    0.0000 C   0  0  0  0  0  0  0  0  0  0  0  0
   10.6603    0.9400    0.0000 C   0  0  0  0  0  0  0  0  0  0  0  0
    2.8660   -1.5600    0.0000 C   0  0  0  0  0  0  0  0  0  0  0  0
    2.0000   -2.0600    0.0000 C   0  0  0  0  0  0  0  0  0  0  0  0
    6.7976    0.4651    0.0000 H   0  0  0  0  0  0  0  0  0  0  0  0
    7.5947    0.4651    0.0000 H   0  0  0  0  0  0  0  0  0  0  0  0
    8.4607    1.9150    0.0000 H   0  0  0  0  0  0  0  0  0  0  0  0
    7.6636    1.9150    0.0000 H   0  0  0  0  0  0  0  0  0  0  0  0
    6.7287    1.9150    0.0000 H   0  0  0  0  0  0  0  0  0  0  0  0
    5.9316    1.9150    0.0000 H   0  0  0  0  0  0  0  0  0  0  0  0
    8.5297    0.4651    0.0000 H   0  0  0  0  0  0  0  0  0  0  0  0
    9.3267    0.4651    0.0000 H   0  0  0  0  0  0  0  0  0  0  0  0
    5.0656    0.4651    0.0000 H   0  0  0  0  0  0  0  0  0  0  0  0
    5.8626    0.4651    0.0000 H   0  0  0  0  0  0  0  0  0  0  0  0
   10.1928    1.9150    0.0000 H   0  0  0  0  0  0  0  0  0  0  0  0
    9.3957    1.9150    0.0000 H   0  0  0  0  0  0  0  0  0  0  0  0
    4.5981    2.0600    0.0000 H   0  0  0  0  0  0  0  0  0  0  0  0
    3.9441   -0.6426    0.0000 H   0  0  0  0  0  0  0  0  0  0  0  0
    4.3426    0.0477    0.0000 H   0  0  0  0  0  0  0  0  0  0  0  0
    2.6540    0.0226    0.0000 H   0  0  0  0  0  0  0  0  0  0  0  0
    2.2554   -0.6677    0.0000 H   0  0  0  0  0  0  0  0  0  0  0  0
    3.1951    1.2500    0.0000 H   0  0  0  0  0  0  0  0  0  0  0  0
   10.3503    0.4031    0.0000 H   0  0  0  0  0  0  0  0  0  0  0  0
   11.1972    0.6300    0.0000 H   0  0  0  0  0  0  0  0  0  0  0  0
   10.9703    1.4769    0.0000 H   0  0  0  0  0  0  0  0  0  0  0  0
    3.0781   -2.1426    0.0000 H   0  0  0  0  0  0  0  0  0  0  0  0
    3.4766   -1.4523    0.0000 H   0  0  0  0  0  0  0  0  0  0  0  0
    1.6900   -1.5231    0.0000 H   0  0  0  0  0  0  0  0  0  0  0  0
    1.4631   -2.3700    0.0000 H   0  0  0  0  0  0  0  0  0  0  0  0
    2.3100   -2.5969    0.0000 H   0  0  0  0  0  0  0  0  0  0  0  0
  1  2  1  0  0  0  0
  1  3  1  0  0  0  0
  1 14  1  0  0  0  0
  1 15  1  0  0  0  0
  2  4  1  0  0  0  0
  2 16  1  0  0  0  0
  2 17  1  0  0  0  0
  3  5  1  0  0  0  0
  3 18  1  0  0  0  0
  3 19  1  0  0  0  0
  4  6  1  0  0  0  0
  4 20  1  0  0  0  0
  4 21  1  0  0  0  0
  5  7  1  0  0  0  0
  5 22  1  0  0  0  0
  5 23  1  0  0  0  0
  6 11  1  0  0  0  0
  6 24  1  0  0  0  0
  6 25  1  0  0  0  0
  7 10  2  0  0  0  0
  7 26  1  0  0  0  0
  8  9  1  0  0  0  0
  8 10  1  0  0  0  0
  8 27  1  0  0  0  0
  8 28  1  0  0  0  0
  9 12  1  0  0  0  0
  9 29  1  0  0  0  0
  9 30  1  0  0  0  0
 10 31  1  0  0  0  0
 11 32  1  0  0  0  0
 11 33  1  0  0  0  0
 11 34  1  0  0  0  0
 12 13  1  0  0  0  0
 12 35  1  0  0  0  0
 12 36  1  0  0  0  0
 13 37  1  0  0  0  0
 13 38  1  0  0  0  0
 13 39  1  0  0  0  0
M  END
> <PUBCHEM_COMPOUND_CID>
5364437

> <PUBCHEM_COMPOUND_CANONICALIZED>
1

> <PUBCHEM_CACTVS_COMPLEXITY>
103

> <PUBCHEM_CACTVS_HBOND_ACCEPTOR>
0

> <PUBCHEM_CACTVS_HBOND_DONOR>
0

> <PUBCHEM_CACTVS_ROTATABLE_BOND>
9

> <PUBCHEM_CACTVS_SUBSKEYS>
AAADceBwAAAAAAAAAAAAAAAAAAAAAAAAAAAAAAAAAAAAAAAAAAAAGAAAAAAACACAAAACAAAAAACAACBCAAAAAAAgAAAICAAAAAgAAAIAAQAAAAAAgAAIAAMAgIAAAAAAAAAAAAAAAAAAAAAAAAAAAAAAAA==

> <PUBCHEM_IUPAC_OPENEYE_NAME>
(Z)-tridec-5-ene

> <PUBCHEM_IUPAC_CAS_NAME>
(Z)-5-tridecene

> <PUBCHEM_IUPAC_NAME_MARKUP>
(<I>Z</I>)-tridec-5-ene

> <PUBCHEM_IUPAC_NAME>
(Z)-tridec-5-ene

> <PUBCHEM_IUPAC_SYSTEMATIC_NAME>
(Z)-tridec-5-ene

> <PUBCHEM_IUPAC_TRADITIONAL_NAME>
(Z)-tridec-5-ene

> <PUBCHEM_IUPAC_INCHI>
InChI=1S/C13H26/c1-3-5-7-9-11-13-12-10-8-6-4-2/h9,11H,3-8,10,12-13H2,1-2H3/b11-9-

> <PUBCHEM_IUPAC_INCHIKEY>
VDFGUEPMNNLWOZ-LUAWRHEFSA-N

> <PUBCHEM_XLOGP3_AA>
6.3

> <PUBCHEM_EXACT_MASS>
182.203450829

> <PUBCHEM_MOLECULAR_FORMULA>
C13H26

> <PUBCHEM_MOLECULAR_WEIGHT>
182.35

> <PUBCHEM_SMILES>
CCCCCCC/C=C\CCCC

> <PUBCHEM_CONNECTIVITY_SMILES>
CCCCCCCC=CCCCC

> <PUBCHEM_CACTVS_TPSA>
0

> <PUBCHEM_MONOISOTOPIC_WEIGHT>
182.203450829

> <PUBCHEM_TOTAL_CHARGE>
0

> <PUBCHEM_HEAVY_ATOM_COUNT>
13

> <PUBCHEM_ATOM_DEF_STEREO_COUNT>
0

> <PUBCHEM_ATOM_UDEF_STEREO_COUNT>
0

> <PUBCHEM_BOND_DEF_STEREO_COUNT>
1

> <PUBCHEM_BOND_UDEF_STEREO_COUNT>
0

> <PUBCHEM_ISOTOPIC_ATOM_COUNT>
0

> <PUBCHEM_COMPONENT_COUNT>
1

> <PUBCHEM_CACTVS_TAUTO_COUNT>
-1

> <PUBCHEM_COORDINATE_TYPE>
1
5
255

$$$$
