5364688
  -OEChem-05122609002D

 50 49  0     1  0  0  0  0  0999 V2000
   12.3923   -3.5600    0.0000 O   0  0  0  0  0  0  0  0  0  0  0  0
    3.7321    2.4400    0.0000 C   0  0  3  0  0  0  0  0  0  0  0  0
    4.5981    2.9400    0.0000 C   0  0  0  0  0  0  0  0  0  0  0  0
    5.4641    2.4400    0.0000 C   0  0  0  0  0  0  0  0  0  0  0  0
    6.3301    2.9400    0.0000 C   0  0  0  0  0  0  0  0  0  0  0  0
    2.8660    2.9400    0.0000 C   0  0  0  0  0  0  0  0  0  0  0  0
    3.7321    1.4400    0.0000 C   0  0  0  0  0  0  0  0  0  0  0  0
    7.1962    2.4400    0.0000 C   0  0  0  0  0  0  0  0  0  0  0  0
    9.7942   -0.0600    0.0000 C   0  0  0  0  0  0  0  0  0  0  0  0
    9.7942    0.9400    0.0000 C   0  0  0  0  0  0  0  0  0  0  0  0
   10.6603   -0.5600    0.0000 C   0  0  0  0  0  0  0  0  0  0  0  0
    2.0000    2.4400    0.0000 C   0  0  0  0  0  0  0  0  0  0  0  0
    8.9282    1.4400    0.0000 C   0  0  0  0  0  0  0  0  0  0  0  0
    8.0622    2.9400    0.0000 C   0  0  0  0  0  0  0  0  0  0  0  0
   10.6603   -1.5600    0.0000 C   0  0  0  0  0  0  0  0  0  0  0  0
    8.9282    2.4400    0.0000 C   0  0  0  0  0  0  0  0  0  0  0  0
   11.5263   -2.0600    0.0000 C   0  0  0  0  0  0  0  0  0  0  0  0
   11.5263   -3.0600    0.0000 C   0  0  0  0  0  0  0  0  0  0  0  0
    4.2690    2.1300    0.0000 H   0  0  0  0  0  0  0  0  0  0  0  0
    4.9966    3.4150    0.0000 H   0  0  0  0  0  0  0  0  0  0  0  0
    4.1996    3.4150    0.0000 H   0  0  0  0  0  0  0  0  0  0  0  0
    5.0656    1.9651    0.0000 H   0  0  0  0  0  0  0  0  0  0  0  0
    5.8626    1.9651    0.0000 H   0  0  0  0  0  0  0  0  0  0  0  0
    6.7287    3.4150    0.0000 H   0  0  0  0  0  0  0  0  0  0  0  0
    5.9316    3.4150    0.0000 H   0  0  0  0  0  0  0  0  0  0  0  0
    3.2646    3.4150    0.0000 H   0  0  0  0  0  0  0  0  0  0  0  0
    2.4675    3.4150    0.0000 H   0  0  0  0  0  0  0  0  0  0  0  0
    3.1121    1.4400    0.0000 H   0  0  0  0  0  0  0  0  0  0  0  0
    3.7321    0.8200    0.0000 H   0  0  0  0  0  0  0  0  0  0  0  0
    4.3521    1.4400    0.0000 H   0  0  0  0  0  0  0  0  0  0  0  0
    6.7976    1.9651    0.0000 H   0  0  0  0  0  0  0  0  0  0  0  0
    7.5947    1.9651    0.0000 H   0  0  0  0  0  0  0  0  0  0  0  0
    9.1837    0.0477    0.0000 H   0  0  0  0  0  0  0  0  0  0  0  0
    9.5822   -0.6426    0.0000 H   0  0  0  0  0  0  0  0  0  0  0  0
   10.4048    0.8323    0.0000 H   0  0  0  0  0  0  0  0  0  0  0  0
   10.0063    1.5226    0.0000 H   0  0  0  0  0  0  0  0  0  0  0  0
   11.2708   -0.6677    0.0000 H   0  0  0  0  0  0  0  0  0  0  0  0
   10.8723    0.0226    0.0000 H   0  0  0  0  0  0  0  0  0  0  0  0
    1.6900    2.9769    0.0000 H   0  0  0  0  0  0  0  0  0  0  0  0
    1.4631    2.1300    0.0000 H   0  0  0  0  0  0  0  0  0  0  0  0
    2.3100    1.9031    0.0000 H   0  0  0  0  0  0  0  0  0  0  0  0
    8.3176    1.5477    0.0000 H   0  0  0  0  0  0  0  0  0  0  0  0
    8.7162    0.8574    0.0000 H   0  0  0  0  0  0  0  0  0  0  0  0
    8.0622    3.5600    0.0000 H   0  0  0  0  0  0  0  0  0  0  0  0
   10.0497   -1.4523    0.0000 H   0  0  0  0  0  0  0  0  0  0  0  0
   10.4482   -2.1426    0.0000 H   0  0  0  0  0  0  0  0  0  0  0  0
    9.4651    2.7500    0.0000 H   0  0  0  0  0  0  0  0  0  0  0  0
   12.1369   -2.1677    0.0000 H   0  0  0  0  0  0  0  0  0  0  0  0
   11.7383   -1.4774    0.0000 H   0  0  0  0  0  0  0  0  0  0  0  0
   10.9893   -3.3700    0.0000 H   0  0  0  0  0  0  0  0  0  0  0  0
  1 18  2  0  0  0  0
  2  3  1  0  0  0  0
  2  6  1  0  0  0  0
  2  7  1  0  0  0  0
  2 19  1  0  0  0  0
  3  4  1  0  0  0  0
  3 20  1  0  0  0  0
  3 21  1  0  0  0  0
  4  5  1  0  0  0  0
  4 22  1  0  0  0  0
  4 23  1  0  0  0  0
  5  8  1  0  0  0  0
  5 24  1  0  0  0  0
  5 25  1  0  0  0  0
  6 12  1  0  0  0  0
  6 26  1  0  0  0  0
  6 27  1  0  0  0  0
  7 28  1  0  0  0  0
  7 29  1  0  0  0  0
  7 30  1  0  0  0  0
  8 14  1  0  0  0  0
  8 31  1  0  0  0  0
  8 32  1  0  0  0  0
  9 10  1  0  0  0  0
  9 11  1  0  0  0  0
  9 33  1  0  0  0  0
  9 34  1  0  0  0  0
 10 13  1  0  0  0  0
 10 35  1  0  0  0  0
 10 36  1  0  0  0  0
 11 15  1  0  0  0  0
 11 37  1  0  0  0  0
 11 38  1  0  0  0  0
 12 39  1  0  0  0  0
 12 40  1  0  0  0  0
 12 41  1  0  0  0  0
 13 16  1  0  0  0  0
 13 42  1  0  0  0  0
 13 43  1  0  0  0  0
 14 16  2  0  0  0  0
 14 44  1  0  0  0  0
 15 17  1  0  0  0  0
 15 45  1  0  0  0  0
 15 46  1  0  0  0  0
 16 47  1  0  0  0  0
 17 18  1  0  0  0  0
 17 48  1  0  0  0  0
 17 49  1  0  0  0  0
 18 50  1  0  0  0  0
M  END
> <PUBCHEM_COMPOUND_CID>
5364688

> <PUBCHEM_COMPOUND_CANONICALIZED>
1

> <PUBCHEM_CACTVS_COMPLEXITY>
196

> <PUBCHEM_CACTVS_HBOND_ACCEPTOR>
1

> <PUBCHEM_CACTVS_HBOND_DONOR>
0

> <PUBCHEM_CACTVS_ROTATABLE_BOND>
13

> <PUBCHEM_CACTVS_SUBSKEYS>
AAADcfB4IAAAAAAAAAAAAAAAAAAAAAAAAAAAAAAAAAAAAAAAAAAAGgAAAAAADQCggAICAAAAAACIAChSgAAAAAAgAAAICAEAAAgAABIAAQAAAAAAgAAIAAMIiMCOAAAAAAAAAAAAAAAAAAAAAAAAAAAAAA==

> <PUBCHEM_IUPAC_OPENEYE_NAME>
(Z)-14-methylhexadec-8-enal

> <PUBCHEM_IUPAC_CAS_NAME>
(Z)-14-methyl-8-hexadecenal

> <PUBCHEM_IUPAC_NAME_MARKUP>
(<I>Z</I>)-14-methylhexadec-8-enal

> <PUBCHEM_IUPAC_NAME>
(Z)-14-methylhexadec-8-enal

> <PUBCHEM_IUPAC_SYSTEMATIC_NAME>
(Z)-14-methylhexadec-8-enal

> <PUBCHEM_IUPAC_TRADITIONAL_NAME>
(Z)-14-methylhexadec-8-enal

> <PUBCHEM_IUPAC_INCHI>
InChI=1S/C17H32O/c1-3-17(2)15-13-11-9-7-5-4-6-8-10-12-14-16-18/h5,7,16-17H,3-4,6,8-15H2,1-2H3/b7-5-

> <PUBCHEM_IUPAC_INCHIKEY>
HSGUJTMCFWXGAP-ALCCZGGFSA-N

> <PUBCHEM_XLOGP3_AA>
6.4

> <PUBCHEM_EXACT_MASS>
252.245315640

> <PUBCHEM_MOLECULAR_FORMULA>
C17H32O

> <PUBCHEM_MOLECULAR_WEIGHT>
252.4

> <PUBCHEM_SMILES>
CCC(C)CCCC/C=C\CCCCCCC=O

> <PUBCHEM_CONNECTIVITY_SMILES>
CCC(C)CCCCC=CCCCCCCC=O

> <PUBCHEM_CACTVS_TPSA>
17.1

> <PUBCHEM_MONOISOTOPIC_WEIGHT>
252.245315640

> <PUBCHEM_TOTAL_CHARGE>
0

> <PUBCHEM_HEAVY_ATOM_COUNT>
18

> <PUBCHEM_ATOM_DEF_STEREO_COUNT>
0

> <PUBCHEM_ATOM_UDEF_STEREO_COUNT>
1

> <PUBCHEM_BOND_DEF_STEREO_COUNT>
1

> <PUBCHEM_BOND_UDEF_STEREO_COUNT>
0

> <PUBCHEM_ISOTOPIC_ATOM_COUNT>
0

> <PUBCHEM_COMPONENT_COUNT>
1

> <PUBCHEM_CACTVS_TAUTO_COUNT>
-1

> <PUBCHEM_COORDINATE_TYPE>
1
5
255

> <PUBCHEM_BONDANNOTATIONS>
2  7  3

$$$$
