5364441
  -OEChem-05122609132D

 42 41  0     0  0  0  0  0  0999 V2000
    6.3301    1.1900    0.0000 C   0  0  0  0  0  0  0  0  0  0  0  0
    5.4641    0.6900    0.0000 C   0  0  0  0  0  0  0  0  0  0  0  0
    7.1962    0.6900    0.0000 C   0  0  0  0  0  0  0  0  0  0  0  0
    4.5981    1.1900    0.0000 C   0  0  0  0  0  0  0  0  0  0  0  0
    8.0622    1.1900    0.0000 C   0  0  0  0  0  0  0  0  0  0  0  0
    3.7321    0.6900    0.0000 C   0  0  0  0  0  0  0  0  0  0  0  0
    8.9282    0.6900    0.0000 C   0  0  0  0  0  0  0  0  0  0  0  0
    2.8660    1.1900    0.0000 C   0  0  0  0  0  0  0  0  0  0  0  0
    9.7942    1.1900    0.0000 C   0  0  0  0  0  0  0  0  0  0  0  0
    2.0000    0.6900    0.0000 C   0  0  0  0  0  0  0  0  0  0  0  0
   10.6603    0.6900    0.0000 C   0  0  0  0  0  0  0  0  0  0  0  0
   10.6603   -0.3100    0.0000 C   0  0  0  0  0  0  0  0  0  0  0  0
   11.5263   -0.8100    0.0000 C   0  0  0  0  0  0  0  0  0  0  0  0
   11.5263   -1.8100    0.0000 C   0  0  0  0  0  0  0  0  0  0  0  0
    6.7287    1.6650    0.0000 H   0  0  0  0  0  0  0  0  0  0  0  0
    5.9316    1.6650    0.0000 H   0  0  0  0  0  0  0  0  0  0  0  0
    5.0656    0.2151    0.0000 H   0  0  0  0  0  0  0  0  0  0  0  0
    5.8626    0.2151    0.0000 H   0  0  0  0  0  0  0  0  0  0  0  0
    6.7976    0.2151    0.0000 H   0  0  0  0  0  0  0  0  0  0  0  0
    7.5947    0.2151    0.0000 H   0  0  0  0  0  0  0  0  0  0  0  0
    4.9966    1.6650    0.0000 H   0  0  0  0  0  0  0  0  0  0  0  0
    4.1996    1.6650    0.0000 H   0  0  0  0  0  0  0  0  0  0  0  0
    8.4607    1.6650    0.0000 H   0  0  0  0  0  0  0  0  0  0  0  0
    7.6637    1.6650    0.0000 H   0  0  0  0  0  0  0  0  0  0  0  0
    3.3335    0.2151    0.0000 H   0  0  0  0  0  0  0  0  0  0  0  0
    4.1306    0.2151    0.0000 H   0  0  0  0  0  0  0  0  0  0  0  0
    8.5297    0.2151    0.0000 H   0  0  0  0  0  0  0  0  0  0  0  0
    9.3267    0.2151    0.0000 H   0  0  0  0  0  0  0  0  0  0  0  0
    3.2646    1.6650    0.0000 H   0  0  0  0  0  0  0  0  0  0  0  0
    2.4675    1.6650    0.0000 H   0  0  0  0  0  0  0  0  0  0  0  0
    9.7942    1.8100    0.0000 H   0  0  0  0  0  0  0  0  0  0  0  0
    1.6900    1.2269    0.0000 H   0  0  0  0  0  0  0  0  0  0  0  0
    1.4631    0.3800    0.0000 H   0  0  0  0  0  0  0  0  0  0  0  0
    2.3100    0.1531    0.0000 H   0  0  0  0  0  0  0  0  0  0  0  0
   11.1972    1.0000    0.0000 H   0  0  0  0  0  0  0  0  0  0  0  0
   10.0497   -0.2023    0.0000 H   0  0  0  0  0  0  0  0  0  0  0  0
   10.4482   -0.8926    0.0000 H   0  0  0  0  0  0  0  0  0  0  0  0
   12.1369   -0.9177    0.0000 H   0  0  0  0  0  0  0  0  0  0  0  0
   11.7383   -0.2274    0.0000 H   0  0  0  0  0  0  0  0  0  0  0  0
   10.9063   -1.8100    0.0000 H   0  0  0  0  0  0  0  0  0  0  0  0
   11.5263   -2.4300    0.0000 H   0  0  0  0  0  0  0  0  0  0  0  0
   12.1463   -1.8100    0.0000 H   0  0  0  0  0  0  0  0  0  0  0  0
  1  2  1  0  0  0  0
  1  3  1  0  0  0  0
  1 15  1  0  0  0  0
  1 16  1  0  0  0  0
  2  4  1  0  0  0  0
  2 17  1  0  0  0  0
  2 18  1  0  0  0  0
  3  5  1  0  0  0  0
  3 19  1  0  0  0  0
  3 20  1  0  0  0  0
  4  6  1  0  0  0  0
  4 21  1  0  0  0  0
  4 22  1  0  0  0  0
  5  7  1  0  0  0  0
  5 23  1  0  0  0  0
  5 24  1  0  0  0  0
  6  8  1  0  0  0  0
  6 25  1  0  0  0  0
  6 26  1  0  0  0  0
  7  9  1  0  0  0  0
  7 27  1  0  0  0  0
  7 28  1  0  0  0  0
  8 10  1  0  0  0  0
  8 29  1  0  0  0  0
  8 30  1  0  0  0  0
  9 11  2  0  0  0  0
  9 31  1  0  0  0  0
 10 32  1  0  0  0  0
 10 33  1  0  0  0  0
 10 34  1  0  0  0  0
 11 12  1  0  0  0  0
 11 35  1  0  0  0  0
 12 13  1  0  0  0  0
 12 36  1  0  0  0  0
 12 37  1  0  0  0  0
 13 14  1  0  0  0  0
 13 38  1  0  0  0  0
 13 39  1  0  0  0  0
 14 40  1  0  0  0  0
 14 41  1  0  0  0  0
 14 42  1  0  0  0  0
M  END
> <PUBCHEM_COMPOUND_CID>
5364441

> <PUBCHEM_COMPOUND_CANONICALIZED>
1

> <PUBCHEM_CACTVS_COMPLEXITY>
113

> <PUBCHEM_CACTVS_HBOND_ACCEPTOR>
0

> <PUBCHEM_CACTVS_HBOND_DONOR>
0

> <PUBCHEM_CACTVS_ROTATABLE_BOND>
10

> <PUBCHEM_CACTVS_SUBSKEYS>
AAADceBwAAAAAAAAAAAAAAAAAAAAAAAAAAAAAAAAAAAAAAAAAAAAGAAAAAAACACAAAACAAAAAACAACBCAAAAAAAgAAAICAAAAAgAAAIAAQAAAAAAgAAIAAMAgIAAAAAAAAAAAAAAAAAAAAAAAAAAAAAAAA==

> <PUBCHEM_IUPAC_OPENEYE_NAME>
(Z)-tetradec-4-ene

> <PUBCHEM_IUPAC_CAS_NAME>
(Z)-4-tetradecene

> <PUBCHEM_IUPAC_NAME_MARKUP>
(<I>Z</I>)-tetradec-4-ene

> <PUBCHEM_IUPAC_NAME>
(Z)-tetradec-4-ene

> <PUBCHEM_IUPAC_SYSTEMATIC_NAME>
(Z)-tetradec-4-ene

> <PUBCHEM_IUPAC_TRADITIONAL_NAME>
(Z)-tetradec-4-ene

> <PUBCHEM_IUPAC_INCHI>
InChI=1S/C14H28/c1-3-5-7-9-11-13-14-12-10-8-6-4-2/h7,9H,3-6,8,10-14H2,1-2H3/b9-7-

> <PUBCHEM_IUPAC_INCHIKEY>
XEIYDTUADLFFTM-CLFYSBASSA-N

> <PUBCHEM_XLOGP3_AA>
6.9

> <PUBCHEM_EXACT_MASS>
196.219100893

> <PUBCHEM_MOLECULAR_FORMULA>
C14H28

> <PUBCHEM_MOLECULAR_WEIGHT>
196.37

> <PUBCHEM_SMILES>
CCCCCCCCC/C=C\CCC

> <PUBCHEM_CONNECTIVITY_SMILES>
CCCCCCCCCC=CCCC

> <PUBCHEM_CACTVS_TPSA>
0

> <PUBCHEM_MONOISOTOPIC_WEIGHT>
196.219100893

> <PUBCHEM_TOTAL_CHARGE>
0

> <PUBCHEM_HEAVY_ATOM_COUNT>
14

> <PUBCHEM_ATOM_DEF_STEREO_COUNT>
0

> <PUBCHEM_ATOM_UDEF_STEREO_COUNT>
0

> <PUBCHEM_BOND_DEF_STEREO_COUNT>
1

> <PUBCHEM_BOND_UDEF_STEREO_COUNT>
0

> <PUBCHEM_ISOTOPIC_ATOM_COUNT>
0

> <PUBCHEM_COMPONENT_COUNT>
1

> <PUBCHEM_CACTVS_TAUTO_COUNT>
-1

> <PUBCHEM_COORDINATE_TYPE>
1
5
255

$$$$
