5364744
  -OEChem-05122609122D

 36 35  0     1  0  0  0  0  0999 V2000
    6.3301   -0.8100    0.0000 C   0  0  0  0  0  0  0  0  0  0  0  0
    6.3301    0.1900    0.0000 C   0  0  0  0  0  0  0  0  0  0  0  0
    7.1962   -1.3100    0.0000 C   0  0  0  0  0  0  0  0  0  0  0  0
    3.7321    1.6900    0.0000 C   0  0  3  0  0  0  0  0  0  0  0  0
    5.4641    0.6900    0.0000 C   0  0  0  0  0  0  0  0  0  0  0  0
    7.1962   -2.3100    0.0000 C   0  0  0  0  0  0  0  0  0  0  0  0
    2.8660    2.1900    0.0000 C   0  0  0  0  0  0  0  0  0  0  0  0
    4.5981    2.1900    0.0000 C   0  0  0  0  0  0  0  0  0  0  0  0
    5.4641    1.6900    0.0000 C   0  0  0  0  0  0  0  0  0  0  0  0
    3.7321    0.6900    0.0000 C   0  0  0  0  0  0  0  0  0  0  0  0
    2.0000    1.6900    0.0000 C   0  0  0  0  0  0  0  0  0  0  0  0
    8.0622   -2.8100    0.0000 C   0  0  0  0  0  0  0  0  0  0  0  0
    5.7196   -0.7023    0.0000 H   0  0  0  0  0  0  0  0  0  0  0  0
    6.1181   -1.3926    0.0000 H   0  0  0  0  0  0  0  0  0  0  0  0
    6.9407    0.0823    0.0000 H   0  0  0  0  0  0  0  0  0  0  0  0
    6.5422    0.7726    0.0000 H   0  0  0  0  0  0  0  0  0  0  0  0
    7.8067   -1.4177    0.0000 H   0  0  0  0  0  0  0  0  0  0  0  0
    7.4082   -0.7274    0.0000 H   0  0  0  0  0  0  0  0  0  0  0  0
    4.2690    1.3800    0.0000 H   0  0  0  0  0  0  0  0  0  0  0  0
    4.8535    0.7977    0.0000 H   0  0  0  0  0  0  0  0  0  0  0  0
    5.2521    0.1074    0.0000 H   0  0  0  0  0  0  0  0  0  0  0  0
    3.2646    2.6650    0.0000 H   0  0  0  0  0  0  0  0  0  0  0  0
    2.4675    2.6650    0.0000 H   0  0  0  0  0  0  0  0  0  0  0  0
    6.5856   -2.2023    0.0000 H   0  0  0  0  0  0  0  0  0  0  0  0
    6.9841   -2.8926    0.0000 H   0  0  0  0  0  0  0  0  0  0  0  0
    4.5981    2.8100    0.0000 H   0  0  0  0  0  0  0  0  0  0  0  0
    6.0010    2.0000    0.0000 H   0  0  0  0  0  0  0  0  0  0  0  0
    3.1121    0.6900    0.0000 H   0  0  0  0  0  0  0  0  0  0  0  0
    3.7321    0.0700    0.0000 H   0  0  0  0  0  0  0  0  0  0  0  0
    4.3521    0.6900    0.0000 H   0  0  0  0  0  0  0  0  0  0  0  0
    1.6900    2.2269    0.0000 H   0  0  0  0  0  0  0  0  0  0  0  0
    1.4631    1.3800    0.0000 H   0  0  0  0  0  0  0  0  0  0  0  0
    2.3100    1.1531    0.0000 H   0  0  0  0  0  0  0  0  0  0  0  0
    7.7522   -3.3469    0.0000 H   0  0  0  0  0  0  0  0  0  0  0  0
    8.5991   -3.1200    0.0000 H   0  0  0  0  0  0  0  0  0  0  0  0
    8.3722   -2.2731    0.0000 H   0  0  0  0  0  0  0  0  0  0  0  0
  1  2  1  0  0  0  0
  1  3  1  0  0  0  0
  1 13  1  0  0  0  0
  1 14  1  0  0  0  0
  2  5  1  0  0  0  0
  2 15  1  0  0  0  0
  2 16  1  0  0  0  0
  3  6  1  0  0  0  0
  3 17  1  0  0  0  0
  3 18  1  0  0  0  0
  4  7  1  0  0  0  0
  4  8  1  0  0  0  0
  4 10  1  0  0  0  0
  4 19  1  0  0  0  0
  5  9  1  0  0  0  0
  5 20  1  0  0  0  0
  5 21  1  0  0  0  0
  6 12  1  0  0  0  0
  6 24  1  0  0  0  0
  6 25  1  0  0  0  0
  7 11  1  0  0  0  0
  7 22  1  0  0  0  0
  7 23  1  0  0  0  0
  8  9  2  0  0  0  0
  8 26  1  0  0  0  0
  9 27  1  0  0  0  0
 10 28  1  0  0  0  0
 10 29  1  0  0  0  0
 10 30  1  0  0  0  0
 11 31  1  0  0  0  0
 11 32  1  0  0  0  0
 11 33  1  0  0  0  0
 12 34  1  0  0  0  0
 12 35  1  0  0  0  0
 12 36  1  0  0  0  0
M  END
> <PUBCHEM_COMPOUND_CID>
5364744

> <PUBCHEM_COMPOUND_CANONICALIZED>
1

> <PUBCHEM_CACTVS_COMPLEXITY>
103

> <PUBCHEM_CACTVS_HBOND_ACCEPTOR>
0

> <PUBCHEM_CACTVS_HBOND_DONOR>
0

> <PUBCHEM_CACTVS_ROTATABLE_BOND>
7

> <PUBCHEM_CACTVS_SUBSKEYS>
AAADceBwAAAAAAAAAAAAAAAAAAAAAAAAAAAAAAAAAAAAAAAAAAAAGAAAAAAADQCAAAACAAAAAACAACBCAAAAAAAgAAAICAAAAAgAAAIAAQAAAAAAgAAIAAMAgAAIAAAAAAAAAAAAAAAAAAAAAAAAAAAAAA==

> <PUBCHEM_IUPAC_OPENEYE_NAME>
(Z)-3-methylundec-4-ene

> <PUBCHEM_IUPAC_CAS_NAME>
(Z)-3-methyl-4-undecene

> <PUBCHEM_IUPAC_NAME_MARKUP>
(<I>Z</I>)-3-methylundec-4-ene

> <PUBCHEM_IUPAC_NAME>
(Z)-3-methylundec-4-ene

> <PUBCHEM_IUPAC_SYSTEMATIC_NAME>
(Z)-3-methylundec-4-ene

> <PUBCHEM_IUPAC_TRADITIONAL_NAME>
(Z)-3-methylundec-4-ene

> <PUBCHEM_IUPAC_INCHI>
InChI=1S/C12H24/c1-4-6-7-8-9-10-11-12(3)5-2/h10-12H,4-9H2,1-3H3/b11-10-

> <PUBCHEM_IUPAC_INCHIKEY>
FOCAIPNHDGQZST-KHPPLWFESA-N

> <PUBCHEM_XLOGP3_AA>
5.6

> <PUBCHEM_EXACT_MASS>
168.187800766

> <PUBCHEM_MOLECULAR_FORMULA>
C12H24

> <PUBCHEM_MOLECULAR_WEIGHT>
168.32

> <PUBCHEM_SMILES>
CCCCCC/C=C\C(C)CC

> <PUBCHEM_CONNECTIVITY_SMILES>
CCCCCCC=CC(C)CC

> <PUBCHEM_CACTVS_TPSA>
0

> <PUBCHEM_MONOISOTOPIC_WEIGHT>
168.187800766

> <PUBCHEM_TOTAL_CHARGE>
0

> <PUBCHEM_HEAVY_ATOM_COUNT>
12

> <PUBCHEM_ATOM_DEF_STEREO_COUNT>
0

> <PUBCHEM_ATOM_UDEF_STEREO_COUNT>
1

> <PUBCHEM_BOND_DEF_STEREO_COUNT>
1

> <PUBCHEM_BOND_UDEF_STEREO_COUNT>
0

> <PUBCHEM_ISOTOPIC_ATOM_COUNT>
0

> <PUBCHEM_COMPONENT_COUNT>
1

> <PUBCHEM_CACTVS_TAUTO_COUNT>
-1

> <PUBCHEM_COORDINATE_TYPE>
1
5
255

> <PUBCHEM_BONDANNOTATIONS>
4  10  3

$$$$
