5364952
  -OEChem-05122609542D

 44 43  0     0  0  0  0  0  0999 V2000
   10.6603    2.4050    0.0000 O   0  0  0  0  0  0  0  0  0  0  0  0
    5.4641   -1.5950    0.0000 C   0  0  0  0  0  0  0  0  0  0  0  0
    6.3301   -2.0950    0.0000 C   0  0  0  0  0  0  0  0  0  0  0  0
    4.5981   -2.0950    0.0000 C   0  0  0  0  0  0  0  0  0  0  0  0
    7.1962   -1.5950    0.0000 C   0  0  0  0  0  0  0  0  0  0  0  0
    3.7320   -1.5950    0.0000 C   0  0  0  0  0  0  0  0  0  0  0  0
    8.0622   -2.0950    0.0000 C   0  0  0  0  0  0  0  0  0  0  0  0
    2.8660   -2.0950    0.0000 C   0  0  0  0  0  0  0  0  0  0  0  0
    8.9282   -1.5950    0.0000 C   0  0  0  0  0  0  0  0  0  0  0  0
    2.0000   -1.5950    0.0000 C   0  0  0  0  0  0  0  0  0  0  0  0
    9.7942   -2.0950    0.0000 C   0  0  0  0  0  0  0  0  0  0  0  0
   10.6603   -1.5950    0.0000 C   0  0  0  0  0  0  0  0  0  0  0  0
   10.6603   -0.5950    0.0000 C   0  0  0  0  0  0  0  0  0  0  0  0
   11.5263   -0.0950    0.0000 C   0  0  0  0  0  0  0  0  0  0  0  0
   11.5263    0.9050    0.0000 C   0  0  0  0  0  0  0  0  0  0  0  0
   10.6603    1.4050    0.0000 C   0  0  0  0  0  0  0  0  0  0  0  0
    5.8626   -1.1200    0.0000 H   0  0  0  0  0  0  0  0  0  0  0  0
    5.0656   -1.1200    0.0000 H   0  0  0  0  0  0  0  0  0  0  0  0
    5.9316   -2.5700    0.0000 H   0  0  0  0  0  0  0  0  0  0  0  0
    6.7287   -2.5700    0.0000 H   0  0  0  0  0  0  0  0  0  0  0  0
    4.1996   -2.5700    0.0000 H   0  0  0  0  0  0  0  0  0  0  0  0
    4.9966   -2.5700    0.0000 H   0  0  0  0  0  0  0  0  0  0  0  0
    7.5947   -1.1200    0.0000 H   0  0  0  0  0  0  0  0  0  0  0  0
    6.7976   -1.1200    0.0000 H   0  0  0  0  0  0  0  0  0  0  0  0
    4.1306   -1.1200    0.0000 H   0  0  0  0  0  0  0  0  0  0  0  0
    3.3335   -1.1200    0.0000 H   0  0  0  0  0  0  0  0  0  0  0  0
    7.6636   -2.5700    0.0000 H   0  0  0  0  0  0  0  0  0  0  0  0
    8.4607   -2.5700    0.0000 H   0  0  0  0  0  0  0  0  0  0  0  0
    2.4675   -2.5700    0.0000 H   0  0  0  0  0  0  0  0  0  0  0  0
    3.2646   -2.5700    0.0000 H   0  0  0  0  0  0  0  0  0  0  0  0
    9.3267   -1.1200    0.0000 H   0  0  0  0  0  0  0  0  0  0  0  0
    8.5297   -1.1200    0.0000 H   0  0  0  0  0  0  0  0  0  0  0  0
    2.3100   -1.0581    0.0000 H   0  0  0  0  0  0  0  0  0  0  0  0
    1.4631   -1.2850    0.0000 H   0  0  0  0  0  0  0  0  0  0  0  0
    1.6900   -2.1319    0.0000 H   0  0  0  0  0  0  0  0  0  0  0  0
    9.7942   -2.7150    0.0000 H   0  0  0  0  0  0  0  0  0  0  0  0
   11.1972   -1.9050    0.0000 H   0  0  0  0  0  0  0  0  0  0  0  0
   10.4482   -0.0124    0.0000 H   0  0  0  0  0  0  0  0  0  0  0  0
   10.0497   -0.7027    0.0000 H   0  0  0  0  0  0  0  0  0  0  0  0
   12.0632   -0.4050    0.0000 H   0  0  0  0  0  0  0  0  0  0  0  0
   12.0632    1.2150    0.0000 H   0  0  0  0  0  0  0  0  0  0  0  0
   10.0497    1.5127    0.0000 H   0  0  0  0  0  0  0  0  0  0  0  0
   10.4482    0.8224    0.0000 H   0  0  0  0  0  0  0  0  0  0  0  0
   10.1233    2.7150    0.0000 H   0  0  0  0  0  0  0  0  0  0  0  0
  1 16  1  0  0  0  0
  1 44  1  0  0  0  0
  2  3  1  0  0  0  0
  2  4  1  0  0  0  0
  2 17  1  0  0  0  0
  2 18  1  0  0  0  0
  3  5  1  0  0  0  0
  3 19  1  0  0  0  0
  3 20  1  0  0  0  0
  4  6  1  0  0  0  0
  4 21  1  0  0  0  0
  4 22  1  0  0  0  0
  5  7  1  0  0  0  0
  5 23  1  0  0  0  0
  5 24  1  0  0  0  0
  6  8  1  0  0  0  0
  6 25  1  0  0  0  0
  6 26  1  0  0  0  0
  7  9  1  0  0  0  0
  7 27  1  0  0  0  0
  7 28  1  0  0  0  0
  8 10  1  0  0  0  0
  8 29  1  0  0  0  0
  8 30  1  0  0  0  0
  9 11  1  0  0  0  0
  9 31  1  0  0  0  0
  9 32  1  0  0  0  0
 10 33  1  0  0  0  0
 10 34  1  0  0  0  0
 10 35  1  0  0  0  0
 11 12  2  0  0  0  0
 11 36  1  0  0  0  0
 12 13  1  0  0  0  0
 12 37  1  0  0  0  0
 13 14  1  0  0  0  0
 13 38  1  0  0  0  0
 13 39  1  0  0  0  0
 14 15  2  0  0  0  0
 14 40  1  0  0  0  0
 15 16  1  0  0  0  0
 15 41  1  0  0  0  0
 16 42  1  0  0  0  0
 16 43  1  0  0  0  0
M  END
> <PUBCHEM_COMPOUND_CID>
5364952

> <PUBCHEM_COMPOUND_CANONICALIZED>
1

> <PUBCHEM_CACTVS_COMPLEXITY>
170

> <PUBCHEM_CACTVS_HBOND_ACCEPTOR>
1

> <PUBCHEM_CACTVS_HBOND_DONOR>
1

> <PUBCHEM_CACTVS_ROTATABLE_BOND>
11

> <PUBCHEM_CACTVS_SUBSKEYS>
AAADceBwIAAAAAAAAAAAAAAAAAAAAAAAAAAAAAAAAAAAAAAAAAAAGgAACAAACACggAICAAAAAgCAACBCAAAAAAAgAAAICAAAAAgAFAIAAQAAEAAAgAAIEAMAgIAAAAAAAAAAAAAAAAAAAAAAAAAAAAAAAA==

> <PUBCHEM_IUPAC_OPENEYE_NAME>
(2Z,5Z)-pentadeca-2,5-dien-1-ol

> <PUBCHEM_IUPAC_CAS_NAME>
(2Z,5Z)-1-pentadeca-2,5-dienol

> <PUBCHEM_IUPAC_NAME_MARKUP>
(2<I>Z</I>,5<I>Z</I>)-pentadeca-2,5-dien-1-ol

> <PUBCHEM_IUPAC_NAME>
(2Z,5Z)-pentadeca-2,5-dien-1-ol

> <PUBCHEM_IUPAC_SYSTEMATIC_NAME>
(2Z,5Z)-pentadeca-2,5-dien-1-ol

> <PUBCHEM_IUPAC_TRADITIONAL_NAME>
(2Z,5Z)-pentadeca-2,5-dien-1-ol

> <PUBCHEM_IUPAC_INCHI>
InChI=1S/C15H28O/c1-2-3-4-5-6-7-8-9-10-11-12-13-14-15-16/h10-11,13-14,16H,2-9,12,15H2,1H3/b11-10-,14-13-

> <PUBCHEM_IUPAC_INCHIKEY>
YRLFKJGWNBEAJL-XVTLYKPTSA-N

> <PUBCHEM_XLOGP3_AA>
5.6

> <PUBCHEM_EXACT_MASS>
224.214015512

> <PUBCHEM_MOLECULAR_FORMULA>
C15H28O

> <PUBCHEM_MOLECULAR_WEIGHT>
224.38

> <PUBCHEM_SMILES>
CCCCCCCCC/C=C\C/C=C\CO

> <PUBCHEM_CONNECTIVITY_SMILES>
CCCCCCCCCC=CCC=CCO

> <PUBCHEM_CACTVS_TPSA>
20.2

> <PUBCHEM_MONOISOTOPIC_WEIGHT>
224.214015512

> <PUBCHEM_TOTAL_CHARGE>
0

> <PUBCHEM_HEAVY_ATOM_COUNT>
16

> <PUBCHEM_ATOM_DEF_STEREO_COUNT>
0

> <PUBCHEM_ATOM_UDEF_STEREO_COUNT>
0

> <PUBCHEM_BOND_DEF_STEREO_COUNT>
2

> <PUBCHEM_BOND_UDEF_STEREO_COUNT>
0

> <PUBCHEM_ISOTOPIC_ATOM_COUNT>
0

> <PUBCHEM_COMPONENT_COUNT>
1

> <PUBCHEM_CACTVS_TAUTO_COUNT>
-1

> <PUBCHEM_COORDINATE_TYPE>
1
5
255

$$$$
