5364438
  -OEChem-05122609022D

 47 46  0     0  0  0  0  0  0999 V2000
    2.5369    3.3100    0.0000 O   0  0  0  0  0  0  0  0  0  0  0  0
    9.4651   -2.6900    0.0000 C   0  0  0  0  0  0  0  0  0  0  0  0
    8.5991   -2.1900    0.0000 C   0  0  0  0  0  0  0  0  0  0  0  0
   10.3312   -2.1900    0.0000 C   0  0  0  0  0  0  0  0  0  0  0  0
    7.7331   -2.6900    0.0000 C   0  0  0  0  0  0  0  0  0  0  0  0
   11.1972   -2.6900    0.0000 C   0  0  0  0  0  0  0  0  0  0  0  0
    6.8671   -2.1900    0.0000 C   0  0  0  0  0  0  0  0  0  0  0  0
   12.0632   -2.1900    0.0000 C   0  0  0  0  0  0  0  0  0  0  0  0
    4.2690   -0.6900    0.0000 C   0  0  0  0  0  0  0  0  0  0  0  0
    4.2690    0.3100    0.0000 C   0  0  0  0  0  0  0  0  0  0  0  0
    5.1350   -1.1900    0.0000 C   0  0  0  0  0  0  0  0  0  0  0  0
    6.0010   -2.6900    0.0000 C   0  0  0  0  0  0  0  0  0  0  0  0
    3.4030    0.8100    0.0000 C   0  0  0  0  0  0  0  0  0  0  0  0
    5.1350   -2.1900    0.0000 C   0  0  0  0  0  0  0  0  0  0  0  0
   12.9292   -2.6900    0.0000 C   0  0  0  0  0  0  0  0  0  0  0  0
    3.4030    1.8100    0.0000 C   0  0  0  0  0  0  0  0  0  0  0  0
    2.5369    2.3100    0.0000 C   0  0  0  0  0  0  0  0  0  0  0  0
    9.0666   -3.1650    0.0000 H   0  0  0  0  0  0  0  0  0  0  0  0
    9.8637   -3.1650    0.0000 H   0  0  0  0  0  0  0  0  0  0  0  0
    8.9976   -1.7151    0.0000 H   0  0  0  0  0  0  0  0  0  0  0  0
    8.2006   -1.7151    0.0000 H   0  0  0  0  0  0  0  0  0  0  0  0
   10.7297   -1.7151    0.0000 H   0  0  0  0  0  0  0  0  0  0  0  0
    9.9326   -1.7151    0.0000 H   0  0  0  0  0  0  0  0  0  0  0  0
    7.3346   -3.1650    0.0000 H   0  0  0  0  0  0  0  0  0  0  0  0
    8.1316   -3.1650    0.0000 H   0  0  0  0  0  0  0  0  0  0  0  0
   10.7987   -3.1650    0.0000 H   0  0  0  0  0  0  0  0  0  0  0  0
   11.5957   -3.1650    0.0000 H   0  0  0  0  0  0  0  0  0  0  0  0
    7.2656   -1.7151    0.0000 H   0  0  0  0  0  0  0  0  0  0  0  0
    6.4685   -1.7151    0.0000 H   0  0  0  0  0  0  0  0  0  0  0  0
   12.4617   -1.7151    0.0000 H   0  0  0  0  0  0  0  0  0  0  0  0
   11.6647   -1.7151    0.0000 H   0  0  0  0  0  0  0  0  0  0  0  0
    3.6584   -0.5823    0.0000 H   0  0  0  0  0  0  0  0  0  0  0  0
    4.0569   -1.2726    0.0000 H   0  0  0  0  0  0  0  0  0  0  0  0
    4.8796    0.2023    0.0000 H   0  0  0  0  0  0  0  0  0  0  0  0
    4.4810    0.8926    0.0000 H   0  0  0  0  0  0  0  0  0  0  0  0
    5.7456   -1.2977    0.0000 H   0  0  0  0  0  0  0  0  0  0  0  0
    5.3471   -0.6074    0.0000 H   0  0  0  0  0  0  0  0  0  0  0  0
    6.0010   -3.3100    0.0000 H   0  0  0  0  0  0  0  0  0  0  0  0
    2.7924    0.9177    0.0000 H   0  0  0  0  0  0  0  0  0  0  0  0
    3.1909    0.2274    0.0000 H   0  0  0  0  0  0  0  0  0  0  0  0
    4.5981   -2.5000    0.0000 H   0  0  0  0  0  0  0  0  0  0  0  0
   12.6192   -3.2269    0.0000 H   0  0  0  0  0  0  0  0  0  0  0  0
   13.4662   -3.0000    0.0000 H   0  0  0  0  0  0  0  0  0  0  0  0
   13.2392   -2.1531    0.0000 H   0  0  0  0  0  0  0  0  0  0  0  0
    4.0135    1.7023    0.0000 H   0  0  0  0  0  0  0  0  0  0  0  0
    3.6150    2.3926    0.0000 H   0  0  0  0  0  0  0  0  0  0  0  0
    2.0000    2.0000    0.0000 H   0  0  0  0  0  0  0  0  0  0  0  0
  1 17  2  0  0  0  0
  2  3  1  0  0  0  0
  2  4  1  0  0  0  0
  2 18  1  0  0  0  0
  2 19  1  0  0  0  0
  3  5  1  0  0  0  0
  3 20  1  0  0  0  0
  3 21  1  0  0  0  0
  4  6  1  0  0  0  0
  4 22  1  0  0  0  0
  4 23  1  0  0  0  0
  5  7  1  0  0  0  0
  5 24  1  0  0  0  0
  5 25  1  0  0  0  0
  6  8  1  0  0  0  0
  6 26  1  0  0  0  0
  6 27  1  0  0  0  0
  7 12  1  0  0  0  0
  7 28  1  0  0  0  0
  7 29  1  0  0  0  0
  8 15  1  0  0  0  0
  8 30  1  0  0  0  0
  8 31  1  0  0  0  0
  9 10  1  0  0  0  0
  9 11  1  0  0  0  0
  9 32  1  0  0  0  0
  9 33  1  0  0  0  0
 10 13  1  0  0  0  0
 10 34  1  0  0  0  0
 10 35  1  0  0  0  0
 11 14  1  0  0  0  0
 11 36  1  0  0  0  0
 11 37  1  0  0  0  0
 12 14  2  0  0  0  0
 12 38  1  0  0  0  0
 13 16  1  0  0  0  0
 13 39  1  0  0  0  0
 13 40  1  0  0  0  0
 14 41  1  0  0  0  0
 15 42  1  0  0  0  0
 15 43  1  0  0  0  0
 15 44  1  0  0  0  0
 16 17  1  0  0  0  0
 16 45  1  0  0  0  0
 16 46  1  0  0  0  0
 17 47  1  0  0  0  0
M  END
> <PUBCHEM_COMPOUND_CID>
5364438

> <PUBCHEM_COMPOUND_CANONICALIZED>
1

> <PUBCHEM_CACTVS_COMPLEXITY>
172

> <PUBCHEM_CACTVS_HBOND_ACCEPTOR>
1

> <PUBCHEM_CACTVS_HBOND_DONOR>
0

> <PUBCHEM_CACTVS_ROTATABLE_BOND>
13

> <PUBCHEM_CACTVS_SUBSKEYS>
AAADceB4IAAAAAAAAAAAAAAAAAAAAAAAAAAAAAAAAAAAAAAAAAAAGgAAAAAACACggAICAAAAAACIAChSgAAAAAAgAAAICAEAAAgAABIAAQAAAAAAgAAIAAMIiICAAAAAAAAAAAAAAAAAAAAAAAAAAAAAAA==

> <PUBCHEM_IUPAC_OPENEYE_NAME>
(Z)-hexadec-7-enal

> <PUBCHEM_IUPAC_CAS_NAME>
(Z)-7-hexadecenal

> <PUBCHEM_IUPAC_NAME_MARKUP>
(<I>Z</I>)-hexadec-7-enal

> <PUBCHEM_IUPAC_NAME>
(Z)-hexadec-7-enal

> <PUBCHEM_IUPAC_SYSTEMATIC_NAME>
(Z)-hexadec-7-enal

> <PUBCHEM_IUPAC_TRADITIONAL_NAME>
(Z)-hexadec-7-enal

> <PUBCHEM_IUPAC_INCHI>
InChI=1S/C16H30O/c1-2-3-4-5-6-7-8-9-10-11-12-13-14-15-16-17/h9-10,16H,2-8,11-15H2,1H3/b10-9-

> <PUBCHEM_IUPAC_INCHIKEY>
BLJFSPZWKBTYHR-KTKRTIGZSA-N

> <PUBCHEM_XLOGP3_AA>
6.1

> <PUBCHEM_EXACT_MASS>
238.229665576

> <PUBCHEM_MOLECULAR_FORMULA>
C16H30O

> <PUBCHEM_MOLECULAR_WEIGHT>
238.41

> <PUBCHEM_SMILES>
CCCCCCCC/C=C\CCCCCC=O

> <PUBCHEM_CONNECTIVITY_SMILES>
CCCCCCCCC=CCCCCCC=O

> <PUBCHEM_CACTVS_TPSA>
17.1

> <PUBCHEM_MONOISOTOPIC_WEIGHT>
238.229665576

> <PUBCHEM_TOTAL_CHARGE>
0

> <PUBCHEM_HEAVY_ATOM_COUNT>
17

> <PUBCHEM_ATOM_DEF_STEREO_COUNT>
0

> <PUBCHEM_ATOM_UDEF_STEREO_COUNT>
0

> <PUBCHEM_BOND_DEF_STEREO_COUNT>
1

> <PUBCHEM_BOND_UDEF_STEREO_COUNT>
0

> <PUBCHEM_ISOTOPIC_ATOM_COUNT>
0

> <PUBCHEM_COMPONENT_COUNT>
1

> <PUBCHEM_CACTVS_TAUTO_COUNT>
-1

> <PUBCHEM_COORDINATE_TYPE>
1
5
255

$$$$
