53654107
  -OEChem-05122608322D

 31 32  0     0  0  0  0  0  0999 V2000
    4.0154    1.4952    0.0000 O   0  0  0  0  0  0  0  0  0  0  0  0
    4.0154   -1.4952    0.0000 O   0  0  0  0  0  0  0  0  0  0  0  0
    5.2457    2.4901    0.0000 O   0  0  0  0  0  0  0  0  0  0  0  0
    5.2457   -2.4901    0.0000 O   0  0  0  0  0  0  0  0  0  0  0  0
    2.9595   -0.0000    0.0000 C   0  0  0  0  0  0  0  0  0  0  0  0
    3.2501    0.9152    0.0000 C   0  0  0  0  0  0  0  0  0  0  0  0
    3.2501   -0.9152    0.0000 C   0  0  0  0  0  0  0  0  0  0  0  0
    2.0000    0.2817    0.0000 C   0  0  0  0  0  0  0  0  0  0  0  0
    2.2694   -0.7237    0.0000 C   0  0  0  0  0  0  0  0  0  0  0  0
    4.9752    1.5273    0.0000 C   0  0  0  0  0  0  0  0  0  0  0  0
    4.9752   -1.5273    0.0000 C   0  0  0  0  0  0  0  0  0  0  0  0
    5.7776    1.0000    0.0000 C   0  0  0  0  0  0  0  0  0  0  0  0
    5.7776   -1.0000    0.0000 C   0  0  0  0  0  0  0  0  0  0  0  0
    6.6437    0.5000    0.0000 C   0  0  0  0  0  0  0  0  0  0  0  0
    6.6437   -0.5000    0.0000 C   0  0  0  0  0  0  0  0  0  0  0  0
    4.9116    0.5000    0.0000 C   0  0  0  0  0  0  0  0  0  0  0  0
    4.9116   -0.5000    0.0000 C   0  0  0  0  0  0  0  0  0  0  0  0
    3.0493    1.5018    0.0000 H   0  0  0  0  0  0  0  0  0  0  0  0
    3.7565    0.5576    0.0000 H   0  0  0  0  0  0  0  0  0  0  0  0
    2.6301   -0.9083    0.0000 H   0  0  0  0  0  0  0  0  0  0  0  0
    3.7565   -0.5576    0.0000 H   0  0  0  0  0  0  0  0  0  0  0  0
    2.1747    0.8766    0.0000 H   0  0  0  0  0  0  0  0  0  0  0  0
    1.4051    0.4564    0.0000 H   0  0  0  0  0  0  0  0  0  0  0  0
    1.8253   -0.3132    0.0000 H   0  0  0  0  0  0  0  0  0  0  0  0
    1.8207   -0.2958    0.0000 H   0  0  0  0  0  0  0  0  0  0  0  0
    1.8415   -1.1724    0.0000 H   0  0  0  0  0  0  0  0  0  0  0  0
    2.7181   -1.1516    0.0000 H   0  0  0  0  0  0  0  0  0  0  0  0
    7.1806    0.8100    0.0000 H   0  0  0  0  0  0  0  0  0  0  0  0
    7.1806   -0.8100    0.0000 H   0  0  0  0  0  0  0  0  0  0  0  0
    4.3747    0.8100    0.0000 H   0  0  0  0  0  0  0  0  0  0  0  0
    4.3747   -0.8100    0.0000 H   0  0  0  0  0  0  0  0  0  0  0  0
  1  6  1  0  0  0  0
  1 10  1  0  0  0  0
  2  7  1  0  0  0  0
  2 11  1  0  0  0  0
  3 10  2  0  0  0  0
  4 11  2  0  0  0  0
  5  6  1  0  0  0  0
  5  7  1  0  0  0  0
  5  8  1  0  0  0  0
  5  9  1  0  0  0  0
  6 18  1  0  0  0  0
  6 19  1  0  0  0  0
  7 20  1  0  0  0  0
  7 21  1  0  0  0  0
  8 22  1  0  0  0  0
  8 23  1  0  0  0  0
  8 24  1  0  0  0  0
  9 25  1  0  0  0  0
  9 26  1  0  0  0  0
  9 27  1  0  0  0  0
 10 12  1  0  0  0  0
 11 13  1  0  0  0  0
 12 14  2  0  0  0  0
 12 16  1  0  0  0  0
 13 15  2  0  0  0  0
 13 17  1  0  0  0  0
 14 15  1  0  0  0  0
 14 28  1  0  0  0  0
 15 29  1  0  0  0  0
 16 17  2  0  0  0  0
 16 30  1  0  0  0  0
 17 31  1  0  0  0  0
M  END
> <PUBCHEM_COMPOUND_CID>
53654107

> <PUBCHEM_COMPOUND_CANONICALIZED>
1

> <PUBCHEM_CACTVS_COMPLEXITY>
283

> <PUBCHEM_CACTVS_HBOND_ACCEPTOR>
4

> <PUBCHEM_CACTVS_HBOND_DONOR>
0

> <PUBCHEM_CACTVS_ROTATABLE_BOND>
0

> <PUBCHEM_CACTVS_SUBSKEYS>
AAADccBwOAAAAAAAAAAAAAAAAAAAAAAAAAAwAAAAAAAAAAABAAAAGgAAAAAADgCgmAIyCIAABACIAiDSCAACAAAkAAAIiAEACMgIJjKANRiCMQAlwAEIqYeIyDCOQAAAAAAAAACAAAAAAAAAAAAAAAAAAA==

> <PUBCHEM_IUPAC_OPENEYE_NAME>
5,5-dimethyl-3,7-dioxabicyclo[7.2.2]trideca-1(11),9,12-triene-2,8-dione

> <PUBCHEM_IUPAC_CAS_NAME>
5,5-dimethyl-3,7-dioxabicyclo[7.2.2]trideca-1(11),9,12-triene-2,8-dione

> <PUBCHEM_IUPAC_NAME_MARKUP>
5,5-dimethyl-3,7-dioxabicyclo[7.2.2]trideca-1(11),9,12-triene-2,8-dione

> <PUBCHEM_IUPAC_NAME>
5,5-dimethyl-3,7-dioxabicyclo[7.2.2]trideca-1(11),9,12-triene-2,8-dione

> <PUBCHEM_IUPAC_SYSTEMATIC_NAME>
5,5-dimethyl-3,7-dioxabicyclo[7.2.2]trideca-1(11),9,12-triene-2,8-dione

> <PUBCHEM_IUPAC_TRADITIONAL_NAME>
5,5-dimethyl-3,7-dioxabicyclo[7.2.2]trideca-1(11),9,12-triene-2,8-quinone

> <PUBCHEM_IUPAC_INCHI>
InChI=1S/C13H14O4/c1-13(2)7-16-11(14)9-3-4-10(6-5-9)12(15)17-8-13/h3-6H,7-8H2,1-2H3

> <PUBCHEM_IUPAC_INCHIKEY>
AORSEFHXORRKKE-UHFFFAOYSA-N

> <PUBCHEM_XLOGP3_AA>
2.6

> <PUBCHEM_EXACT_MASS>
234.08920892

> <PUBCHEM_MOLECULAR_FORMULA>
C13H14O4

> <PUBCHEM_MOLECULAR_WEIGHT>
234.25

> <PUBCHEM_SMILES>
CC1(COC(=O)C2=CC=C(C=C2)C(=O)OC1)C

> <PUBCHEM_CONNECTIVITY_SMILES>
CC1(COC(=O)C2=CC=C(C=C2)C(=O)OC1)C

> <PUBCHEM_CACTVS_TPSA>
52.6

> <PUBCHEM_MONOISOTOPIC_WEIGHT>
234.08920892

> <PUBCHEM_TOTAL_CHARGE>
0

> <PUBCHEM_HEAVY_ATOM_COUNT>
17

> <PUBCHEM_ATOM_DEF_STEREO_COUNT>
0

> <PUBCHEM_ATOM_UDEF_STEREO_COUNT>
0

> <PUBCHEM_BOND_DEF_STEREO_COUNT>
0

> <PUBCHEM_BOND_UDEF_STEREO_COUNT>
0

> <PUBCHEM_ISOTOPIC_ATOM_COUNT>
0

> <PUBCHEM_COMPONENT_COUNT>
1

> <PUBCHEM_CACTVS_TAUTO_COUNT>
-1

> <PUBCHEM_COORDINATE_TYPE>
1
5
255

> <PUBCHEM_BONDANNOTATIONS>
12  14  8
12  16  8
13  15  8
13  17  8
14  15  8
16  17  8

$$$$
