536585
  -OEChem-05122609162D

 35 35  0     0  0  0  0  0  0999 V2000
    5.6646   -1.8723    0.0000 O   0  0  0  0  0  0  0  0  0  0  0  0
    3.9045   -1.5936    0.0000 O   0  0  0  0  0  0  0  0  0  0  0  0
    6.4736   -1.2846    0.0000 C   0  0  0  0  0  0  0  0  0  0  0  0
    6.1646   -0.3335    0.0000 C   0  0  0  0  0  0  0  0  0  0  0  0
    5.1646   -0.3335    0.0000 C   0  0  0  0  0  0  0  0  0  0  0  0
    4.5768    0.4755    0.0000 C   0  0  0  0  0  0  0  0  0  0  0  0
    7.0614   -2.0936    0.0000 C   0  0  0  0  0  0  0  0  0  0  0  0
    7.4247   -0.9755    0.0000 C   0  0  0  0  0  0  0  0  0  0  0  0
    4.8556   -1.2846    0.0000 C   0  0  0  0  0  0  0  0  0  0  0  0
    3.5823    0.3710    0.0000 C   0  0  0  0  0  0  0  0  0  0  0  0
    2.9945    1.1800    0.0000 C   0  0  0  0  0  0  0  0  0  0  0  0
    6.7524    0.4755    0.0000 C   0  0  0  0  0  0  0  0  0  0  0  0
    2.0000    1.0755    0.0000 C   0  0  0  0  0  0  0  0  0  0  0  0
    3.4013    2.0936    0.0000 C   0  0  0  0  0  0  0  0  0  0  0  0
    3.1756   -0.5425    0.0000 C   0  0  0  0  0  0  0  0  0  0  0  0
    5.1341    0.7473    0.0000 H   0  0  0  0  0  0  0  0  0  0  0  0
    4.4059    1.0715    0.0000 H   0  0  0  0  0  0  0  0  0  0  0  0
    6.5598   -2.4580    0.0000 H   0  0  0  0  0  0  0  0  0  0  0  0
    7.4258   -2.5952    0.0000 H   0  0  0  0  0  0  0  0  0  0  0  0
    7.5630   -1.7291    0.0000 H   0  0  0  0  0  0  0  0  0  0  0  0
    7.6163   -1.5652    0.0000 H   0  0  0  0  0  0  0  0  0  0  0  0
    8.0143   -0.7839    0.0000 H   0  0  0  0  0  0  0  0  0  0  0  0
    7.2331   -0.3859    0.0000 H   0  0  0  0  0  0  0  0  0  0  0  0
    3.6111    1.2448    0.0000 H   0  0  0  0  0  0  0  0  0  0  0  0
    7.2540    0.1111    0.0000 H   0  0  0  0  0  0  0  0  0  0  0  0
    7.1168    0.9771    0.0000 H   0  0  0  0  0  0  0  0  0  0  0  0
    6.2508    0.8400    0.0000 H   0  0  0  0  0  0  0  0  0  0  0  0
    1.9352    1.6921    0.0000 H   0  0  0  0  0  0  0  0  0  0  0  0
    1.3834    1.0107    0.0000 H   0  0  0  0  0  0  0  0  0  0  0  0
    2.0648    0.4589    0.0000 H   0  0  0  0  0  0  0  0  0  0  0  0
    3.9677    1.8414    0.0000 H   0  0  0  0  0  0  0  0  0  0  0  0
    3.6534    2.6600    0.0000 H   0  0  0  0  0  0  0  0  0  0  0  0
    2.8349    2.3457    0.0000 H   0  0  0  0  0  0  0  0  0  0  0  0
    2.5590   -0.6074    0.0000 H   0  0  0  0  0  0  0  0  0  0  0  0
    3.5400   -1.0441    0.0000 H   0  0  0  0  0  0  0  0  0  0  0  0
  1  3  1  0  0  0  0
  1  9  1  0  0  0  0
  2  9  2  0  0  0  0
  3  4  1  0  0  0  0
  3  7  1  0  0  0  0
  3  8  1  0  0  0  0
  4  5  2  0  0  0  0
  4 12  1  0  0  0  0
  5  6  1  0  0  0  0
  5  9  1  0  0  0  0
  6 10  1  0  0  0  0
  6 16  1  0  0  0  0
  6 17  1  0  0  0  0
  7 18  1  0  0  0  0
  7 19  1  0  0  0  0
  7 20  1  0  0  0  0
  8 21  1  0  0  0  0
  8 22  1  0  0  0  0
  8 23  1  0  0  0  0
 10 11  1  0  0  0  0
 10 15  2  0  0  0  0
 11 13  1  0  0  0  0
 11 14  1  0  0  0  0
 11 24  1  0  0  0  0
 12 25  1  0  0  0  0
 12 26  1  0  0  0  0
 12 27  1  0  0  0  0
 13 28  1  0  0  0  0
 13 29  1  0  0  0  0
 13 30  1  0  0  0  0
 14 31  1  0  0  0  0
 14 32  1  0  0  0  0
 14 33  1  0  0  0  0
 15 34  1  0  0  0  0
 15 35  1  0  0  0  0
M  END
> <PUBCHEM_COMPOUND_CID>
536585

> <PUBCHEM_COMPOUND_CANONICALIZED>
1

> <PUBCHEM_CACTVS_COMPLEXITY>
332

> <PUBCHEM_CACTVS_HBOND_ACCEPTOR>
2

> <PUBCHEM_CACTVS_HBOND_DONOR>
0

> <PUBCHEM_CACTVS_ROTATABLE_BOND>
3

> <PUBCHEM_CACTVS_SUBSKEYS>
AAADceBwMAAAAAAAAAAAAAAAAAAAAQAAAAAAAAAAAAAAAAAAAAAAGgAAAAAADUSAgAACCAAABACIAgDSCAAAAAAgAAAACAEAAEgABBIAIQACEAAEgAAIIQOISBAMAAAAAAAAAAAAAAAAAAAAAAAAAAAAAA==

> <PUBCHEM_IUPAC_OPENEYE_NAME>
4,5,5-trimethyl-3-(3-methyl-2-methylene-butyl)furan-2-one

> <PUBCHEM_IUPAC_CAS_NAME>
4,5,5-trimethyl-3-(3-methyl-2-methylenebutyl)-2-furanone

> <PUBCHEM_IUPAC_NAME_MARKUP>
4,5,5-trimethyl-3-(3-methyl-2-methylidenebutyl)furan-2-one

> <PUBCHEM_IUPAC_NAME>
4,5,5-trimethyl-3-(3-methyl-2-methylidenebutyl)furan-2-one

> <PUBCHEM_IUPAC_SYSTEMATIC_NAME>
4,5,5-trimethyl-3-(3-methyl-2-methylidene-butyl)furan-2-one

> <PUBCHEM_IUPAC_TRADITIONAL_NAME>
3-(2-isopropylallyl)-4,5,5-trimethyl-furan-2-one

> <PUBCHEM_IUPAC_INCHI>
InChI=1S/C13H20O2/c1-8(2)9(3)7-11-10(4)13(5,6)15-12(11)14/h8H,3,7H2,1-2,4-6H3

> <PUBCHEM_IUPAC_INCHIKEY>
QLGACDJHDZHSAF-UHFFFAOYSA-N

> <PUBCHEM_XLOGP3_AA>
3.2

> <PUBCHEM_EXACT_MASS>
208.146329876

> <PUBCHEM_MOLECULAR_FORMULA>
C13H20O2

> <PUBCHEM_MOLECULAR_WEIGHT>
208.30

> <PUBCHEM_SMILES>
CC1=C(C(=O)OC1(C)C)CC(=C)C(C)C

> <PUBCHEM_CONNECTIVITY_SMILES>
CC1=C(C(=O)OC1(C)C)CC(=C)C(C)C

> <PUBCHEM_CACTVS_TPSA>
26.3

> <PUBCHEM_MONOISOTOPIC_WEIGHT>
208.146329876

> <PUBCHEM_TOTAL_CHARGE>
0

> <PUBCHEM_HEAVY_ATOM_COUNT>
15

> <PUBCHEM_ATOM_DEF_STEREO_COUNT>
0

> <PUBCHEM_ATOM_UDEF_STEREO_COUNT>
0

> <PUBCHEM_BOND_DEF_STEREO_COUNT>
0

> <PUBCHEM_BOND_UDEF_STEREO_COUNT>
0

> <PUBCHEM_ISOTOPIC_ATOM_COUNT>
0

> <PUBCHEM_COMPONENT_COUNT>
1

> <PUBCHEM_CACTVS_TAUTO_COUNT>
-1

> <PUBCHEM_COORDINATE_TYPE>
1
5
255

$$$$
