5366159
  -OEChem-05122609052D

 36 35  0     1  0  0  0  0  0999 V2000
    3.7321    0.9400    0.0000 C   0  0  3  0  0  0  0  0  0  0  0  0
    4.5981    1.4400    0.0000 C   0  0  0  0  0  0  0  0  0  0  0  0
    2.8660    1.4400    0.0000 C   0  0  0  0  0  0  0  0  0  0  0  0
    5.4641    0.9400    0.0000 C   0  0  0  0  0  0  0  0  0  0  0  0
    3.7321   -0.0600    0.0000 C   0  0  0  0  0  0  0  0  0  0  0  0
    2.0000    0.9400    0.0000 C   0  0  0  0  0  0  0  0  0  0  0  0
    6.3301    1.4400    0.0000 C   0  0  0  0  0  0  0  0  0  0  0  0
    7.1962   -0.0600    0.0000 C   0  0  0  0  0  0  0  0  0  0  0  0
    8.0622   -0.5600    0.0000 C   0  0  0  0  0  0  0  0  0  0  0  0
    7.1962    0.9400    0.0000 C   0  0  0  0  0  0  0  0  0  0  0  0
    8.0622   -1.5600    0.0000 C   0  0  0  0  0  0  0  0  0  0  0  0
    8.9282   -2.0600    0.0000 C   0  0  0  0  0  0  0  0  0  0  0  0
    4.2690    0.6300    0.0000 H   0  0  0  0  0  0  0  0  0  0  0  0
    4.9966    1.9150    0.0000 H   0  0  0  0  0  0  0  0  0  0  0  0
    4.1996    1.9150    0.0000 H   0  0  0  0  0  0  0  0  0  0  0  0
    3.2646    1.9150    0.0000 H   0  0  0  0  0  0  0  0  0  0  0  0
    2.4675    1.9150    0.0000 H   0  0  0  0  0  0  0  0  0  0  0  0
    5.0656    0.4651    0.0000 H   0  0  0  0  0  0  0  0  0  0  0  0
    5.8626    0.4651    0.0000 H   0  0  0  0  0  0  0  0  0  0  0  0
    3.1121   -0.0600    0.0000 H   0  0  0  0  0  0  0  0  0  0  0  0
    3.7321   -0.6800    0.0000 H   0  0  0  0  0  0  0  0  0  0  0  0
    4.3521   -0.0600    0.0000 H   0  0  0  0  0  0  0  0  0  0  0  0
    6.3301    2.0600    0.0000 H   0  0  0  0  0  0  0  0  0  0  0  0
    1.6900    1.4769    0.0000 H   0  0  0  0  0  0  0  0  0  0  0  0
    1.4631    0.6300    0.0000 H   0  0  0  0  0  0  0  0  0  0  0  0
    2.3100    0.4031    0.0000 H   0  0  0  0  0  0  0  0  0  0  0  0
    6.5856    0.0477    0.0000 H   0  0  0  0  0  0  0  0  0  0  0  0
    6.9841   -0.6426    0.0000 H   0  0  0  0  0  0  0  0  0  0  0  0
    8.6728   -0.6677    0.0000 H   0  0  0  0  0  0  0  0  0  0  0  0
    8.2742    0.0226    0.0000 H   0  0  0  0  0  0  0  0  0  0  0  0
    7.7331    1.2500    0.0000 H   0  0  0  0  0  0  0  0  0  0  0  0
    7.4516   -1.4523    0.0000 H   0  0  0  0  0  0  0  0  0  0  0  0
    7.8501   -2.1426    0.0000 H   0  0  0  0  0  0  0  0  0  0  0  0
    8.6182   -2.5969    0.0000 H   0  0  0  0  0  0  0  0  0  0  0  0
    9.4651   -2.3700    0.0000 H   0  0  0  0  0  0  0  0  0  0  0  0
    9.2382   -1.5231    0.0000 H   0  0  0  0  0  0  0  0  0  0  0  0
  1  2  1  0  0  0  0
  1  3  1  0  0  0  0
  1  5  1  0  0  0  0
  1 13  1  0  0  0  0
  2  4  1  0  0  0  0
  2 14  1  0  0  0  0
  2 15  1  0  0  0  0
  3  6  1  0  0  0  0
  3 16  1  0  0  0  0
  3 17  1  0  0  0  0
  4  7  1  0  0  0  0
  4 18  1  0  0  0  0
  4 19  1  0  0  0  0
  5 20  1  0  0  0  0
  5 21  1  0  0  0  0
  5 22  1  0  0  0  0
  6 24  1  0  0  0  0
  6 25  1  0  0  0  0
  6 26  1  0  0  0  0
  7 10  2  0  0  0  0
  7 23  1  0  0  0  0
  8  9  1  0  0  0  0
  8 10  1  0  0  0  0
  8 27  1  0  0  0  0
  8 28  1  0  0  0  0
  9 11  1  0  0  0  0
  9 29  1  0  0  0  0
  9 30  1  0  0  0  0
 10 31  1  0  0  0  0
 11 12  1  0  0  0  0
 11 32  1  0  0  0  0
 11 33  1  0  0  0  0
 12 34  1  0  0  0  0
 12 35  1  0  0  0  0
 12 36  1  0  0  0  0
M  END
> <PUBCHEM_COMPOUND_CID>
5366159

> <PUBCHEM_COMPOUND_CANONICALIZED>
1

> <PUBCHEM_CACTVS_COMPLEXITY>
103

> <PUBCHEM_CACTVS_HBOND_ACCEPTOR>
0

> <PUBCHEM_CACTVS_HBOND_DONOR>
0

> <PUBCHEM_CACTVS_ROTATABLE_BOND>
7

> <PUBCHEM_CACTVS_SUBSKEYS>
AAADceBwAAAAAAAAAAAAAAAAAAAAAAAAAAAAAAAAAAAAAAAAAAAAGAAAAAAADQCAAAACAAAAAACAACBCAAAAAAAgAAAICAAAAAgAAAIAAQAAAAAAgAAIAAMAAAAOAAAAAAAAAAAAAAAAAAAAAAAAAAAAAA==

> <PUBCHEM_IUPAC_OPENEYE_NAME>
(Z)-9-methylundec-5-ene

> <PUBCHEM_IUPAC_CAS_NAME>
(Z)-9-methyl-5-undecene

> <PUBCHEM_IUPAC_NAME_MARKUP>
(<I>Z</I>)-9-methylundec-5-ene

> <PUBCHEM_IUPAC_NAME>
(Z)-9-methylundec-5-ene

> <PUBCHEM_IUPAC_SYSTEMATIC_NAME>
(Z)-9-methylundec-5-ene

> <PUBCHEM_IUPAC_TRADITIONAL_NAME>
(Z)-9-methylundec-5-ene

> <PUBCHEM_IUPAC_INCHI>
InChI=1S/C12H24/c1-4-6-7-8-9-10-11-12(3)5-2/h8-9,12H,4-7,10-11H2,1-3H3/b9-8-

> <PUBCHEM_IUPAC_INCHIKEY>
DZDLDKRBWUNRKA-HJWRWDBZSA-N

> <PUBCHEM_XLOGP3_AA>
5.5

> <PUBCHEM_EXACT_MASS>
168.187800766

> <PUBCHEM_MOLECULAR_FORMULA>
C12H24

> <PUBCHEM_MOLECULAR_WEIGHT>
168.32

> <PUBCHEM_SMILES>
CCCC/C=C\CCC(C)CC

> <PUBCHEM_CONNECTIVITY_SMILES>
CCCCC=CCCC(C)CC

> <PUBCHEM_CACTVS_TPSA>
0

> <PUBCHEM_MONOISOTOPIC_WEIGHT>
168.187800766

> <PUBCHEM_TOTAL_CHARGE>
0

> <PUBCHEM_HEAVY_ATOM_COUNT>
12

> <PUBCHEM_ATOM_DEF_STEREO_COUNT>
0

> <PUBCHEM_ATOM_UDEF_STEREO_COUNT>
1

> <PUBCHEM_BOND_DEF_STEREO_COUNT>
1

> <PUBCHEM_BOND_UDEF_STEREO_COUNT>
0

> <PUBCHEM_ISOTOPIC_ATOM_COUNT>
0

> <PUBCHEM_COMPONENT_COUNT>
1

> <PUBCHEM_CACTVS_TAUTO_COUNT>
-1

> <PUBCHEM_COORDINATE_TYPE>
1
5
255

> <PUBCHEM_BONDANNOTATIONS>
1  5  3

$$$$
