5367602
  -OEChem-05122609402D

 39 40  0     1  0  0  0  0  0999 V2000
    4.0835   -1.4221    0.0000 C   0  0  0  0  0  0  0  0  0  0  0  0
    4.4245   -0.4732    0.0000 C   0  0  3  0  0  0  0  0  0  0  0  0
    3.4848   -0.1312    0.0000 C   0  0  3  0  0  0  0  0  0  0  0  0
    3.1361   -1.0772    0.0000 C   0  0  0  0  0  0  0  0  0  0  0  0
    5.3642   -0.1312    0.0000 C   0  0  0  0  0  0  0  0  0  0  0  0
    3.7434   -2.3625    0.0000 C   0  0  0  0  0  0  0  0  0  0  0  0
    5.0239   -1.7622    0.0000 C   0  0  0  0  0  0  0  0  0  0  0  0
    2.9848    0.7349    0.0000 C   0  0  0  0  0  0  0  0  0  0  0  0
    5.8642    0.7349    0.0000 C   0  0  0  0  0  0  0  0  0  0  0  0
    3.1585    1.7197    0.0000 C   0  0  0  0  0  0  0  0  0  0  0  0
    2.0000    0.5612    0.0000 C   0  0  0  0  0  0  0  0  0  0  0  0
    3.9245    2.3625    0.0000 C   0  0  0  0  0  0  0  0  0  0  0  0
    5.6905    1.7197    0.0000 C   0  0  0  0  0  0  0  0  0  0  0  0
    4.9245    2.3625    0.0000 C   0  0  0  0  0  0  0  0  0  0  0  0
    6.5566    2.2197    0.0000 C   0  0  0  0  0  0  0  0  0  0  0  0
    4.8638   -0.9107    0.0000 H   0  0  0  0  0  0  0  0  0  0  0  0
    2.8671   -0.1839    0.0000 H   0  0  0  0  0  0  0  0  0  0  0  0
    2.5540   -0.8636    0.0000 H   0  0  0  0  0  0  0  0  0  0  0  0
    2.9232   -1.6595    0.0000 H   0  0  0  0  0  0  0  0  0  0  0  0
    5.4002   -0.7501    0.0000 H   0  0  0  0  0  0  0  0  0  0  0  0
    5.9675   -0.2741    0.0000 H   0  0  0  0  0  0  0  0  0  0  0  0
    3.1604   -2.1516    0.0000 H   0  0  0  0  0  0  0  0  0  0  0  0
    3.5326   -2.9455    0.0000 H   0  0  0  0  0  0  0  0  0  0  0  0
    4.3265   -2.5733    0.0000 H   0  0  0  0  0  0  0  0  0  0  0  0
    4.8131   -2.3452    0.0000 H   0  0  0  0  0  0  0  0  0  0  0  0
    5.6070   -1.9730    0.0000 H   0  0  0  0  0  0  0  0  0  0  0  0
    5.2348   -1.1791    0.0000 H   0  0  0  0  0  0  0  0  0  0  0  0
    6.4748    0.6272    0.0000 H   0  0  0  0  0  0  0  0  0  0  0  0
    2.6215    2.0297    0.0000 H   0  0  0  0  0  0  0  0  0  0  0  0
    1.8923    1.1718    0.0000 H   0  0  0  0  0  0  0  0  0  0  0  0
    1.3894    0.4536    0.0000 H   0  0  0  0  0  0  0  0  0  0  0  0
    2.1077   -0.0494    0.0000 H   0  0  0  0  0  0  0  0  0  0  0  0
    4.1023    2.9564    0.0000 H   0  0  0  0  0  0  0  0  0  0  0  0
    3.4065    2.7032    0.0000 H   0  0  0  0  0  0  0  0  0  0  0  0
    5.4425    2.7032    0.0000 H   0  0  0  0  0  0  0  0  0  0  0  0
    4.7467    2.9564    0.0000 H   0  0  0  0  0  0  0  0  0  0  0  0
    6.8666    1.6827    0.0000 H   0  0  0  0  0  0  0  0  0  0  0  0
    7.0935    2.5297    0.0000 H   0  0  0  0  0  0  0  0  0  0  0  0
    6.2466    2.7566    0.0000 H   0  0  0  0  0  0  0  0  0  0  0  0
  1  2  1  0  0  0  0
  1  4  1  0  0  0  0
  1  6  1  0  0  0  0
  1  7  1  0  0  0  0
  2  3  1  0  0  0  0
  2  5  1  0  0  0  0
  2 16  1  0  0  0  0
  3  4  1  0  0  0  0
  3  8  1  0  0  0  0
  3 17  1  0  0  0  0
  4 18  1  0  0  0  0
  4 19  1  0  0  0  0
  5  9  1  0  0  0  0
  5 20  1  0  0  0  0
  5 21  1  0  0  0  0
  6 22  1  0  0  0  0
  6 23  1  0  0  0  0
  6 24  1  0  0  0  0
  7 25  1  0  0  0  0
  7 26  1  0  0  0  0
  7 27  1  0  0  0  0
  8 10  2  0  0  0  0
  8 11  1  0  0  0  0
  9 13  2  0  0  0  0
  9 28  1  0  0  0  0
 10 12  1  0  0  0  0
 10 29  1  0  0  0  0
 11 30  1  0  0  0  0
 11 31  1  0  0  0  0
 11 32  1  0  0  0  0
 12 14  1  0  0  0  0
 12 33  1  0  0  0  0
 12 34  1  0  0  0  0
 13 14  1  0  0  0  0
 13 15  1  0  0  0  0
 14 35  1  0  0  0  0
 14 36  1  0  0  0  0
 15 37  1  0  0  0  0
 15 38  1  0  0  0  0
 15 39  1  0  0  0  0
M  END
> <PUBCHEM_COMPOUND_CID>
5367602

> <PUBCHEM_COMPOUND_CANONICALIZED>
1

> <PUBCHEM_CACTVS_COMPLEXITY>
304

> <PUBCHEM_CACTVS_HBOND_ACCEPTOR>
0

> <PUBCHEM_CACTVS_HBOND_DONOR>
0

> <PUBCHEM_CACTVS_ROTATABLE_BOND>
0

> <PUBCHEM_CACTVS_SUBSKEYS>
AAADceBwAAAAAAAAAAAAAAAAAABgAAAAAAAAAAAAAAAAAEAAAAAAGAAAAAAADwCAAAACAAAAAACAAiBCAAAAAAAgAAAACAAAAAgAAAIAAQAAAAAAgAAIAAMAgMAPgAAAAAAAAAAAAAAAAAAAAAAAAAAAAA==

> <PUBCHEM_IUPAC_OPENEYE_NAME>
(2Z,6Z)-2,6,10,10-tetramethylbicyclo[7.2.0]undeca-2,6-diene

> <PUBCHEM_IUPAC_CAS_NAME>
(2Z,6Z)-2,6,10,10-tetramethylbicyclo[7.2.0]undeca-2,6-diene

> <PUBCHEM_IUPAC_NAME_MARKUP>
(2<I>Z</I>,6<I>Z</I>)-2,6,10,10-tetramethylbicyclo[7.2.0]undeca-2,6-diene

> <PUBCHEM_IUPAC_NAME>
(2Z,6Z)-2,6,10,10-tetramethylbicyclo[7.2.0]undeca-2,6-diene

> <PUBCHEM_IUPAC_SYSTEMATIC_NAME>
(2Z,6Z)-2,6,10,10-tetramethylbicyclo[7.2.0]undeca-2,6-diene

> <PUBCHEM_IUPAC_TRADITIONAL_NAME>
(2Z,6Z)-2,6,10,10-tetramethylbicyclo[7.2.0]undeca-2,6-diene

> <PUBCHEM_IUPAC_INCHI>
InChI=1S/C15H24/c1-11-6-5-7-12(2)13-10-15(3,4)14(13)9-8-11/h7-8,13-14H,5-6,9-10H2,1-4H3/b11-8-,12-7-

> <PUBCHEM_IUPAC_INCHIKEY>
ULWLVRZSZQKPOE-HONFXZPPSA-N

> <PUBCHEM_XLOGP3_AA>
4.1

> <PUBCHEM_EXACT_MASS>
204.187800766

> <PUBCHEM_MOLECULAR_FORMULA>
C15H24

> <PUBCHEM_MOLECULAR_WEIGHT>
204.35

> <PUBCHEM_SMILES>
C/C/1=C/CC2C(CC2(C)C)/C(=C\CC1)/C

> <PUBCHEM_CONNECTIVITY_SMILES>
CC1=CCC2C(CC2(C)C)C(=CCC1)C

> <PUBCHEM_CACTVS_TPSA>
0

> <PUBCHEM_MONOISOTOPIC_WEIGHT>
204.187800766

> <PUBCHEM_TOTAL_CHARGE>
0

> <PUBCHEM_HEAVY_ATOM_COUNT>
15

> <PUBCHEM_ATOM_DEF_STEREO_COUNT>
0

> <PUBCHEM_ATOM_UDEF_STEREO_COUNT>
2

> <PUBCHEM_BOND_DEF_STEREO_COUNT>
2

> <PUBCHEM_BOND_UDEF_STEREO_COUNT>
0

> <PUBCHEM_ISOTOPIC_ATOM_COUNT>
0

> <PUBCHEM_COMPONENT_COUNT>
1

> <PUBCHEM_CACTVS_TAUTO_COUNT>
-1

> <PUBCHEM_COORDINATE_TYPE>
1
5
255

> <PUBCHEM_BONDANNOTATIONS>
2  5  3
3  4  3

$$$$
