5368950
  -OEChem-05122609572D

 25 24  0     0  0  0  0  0  0999 V2000
    4.5981    0.4400    0.0000 O   0  0  0  0  0  0  0  0  0  0  0  0
    5.4641   -1.0600    0.0000 O   0  0  0  0  0  0  0  0  0  0  0  0
    2.8660    0.4400    0.0000 C   0  0  0  0  0  0  0  0  0  0  0  0
    3.7321   -0.0600    0.0000 C   0  0  0  0  0  0  0  0  0  0  0  0
    2.0000   -0.0600    0.0000 C   0  0  0  0  0  0  0  0  0  0  0  0
    5.4641   -0.0600    0.0000 C   0  0  0  0  0  0  0  0  0  0  0  0
    6.3301    0.4400    0.0000 C   0  0  0  0  0  0  0  0  0  0  0  0
    7.1962   -0.0600    0.0000 C   0  0  0  0  0  0  0  0  0  0  0  0
    8.0622    0.4400    0.0000 C   0  0  0  0  0  0  0  0  0  0  0  0
    8.9282   -0.0600    0.0000 C   0  0  0  0  0  0  0  0  0  0  0  0
    9.7942    0.4400    0.0000 C   0  0  0  0  0  0  0  0  0  0  0  0
    3.2646    0.9149    0.0000 H   0  0  0  0  0  0  0  0  0  0  0  0
    2.4675    0.9149    0.0000 H   0  0  0  0  0  0  0  0  0  0  0  0
    3.3335   -0.5349    0.0000 H   0  0  0  0  0  0  0  0  0  0  0  0
    4.1306   -0.5349    0.0000 H   0  0  0  0  0  0  0  0  0  0  0  0
    1.6900    0.4769    0.0000 H   0  0  0  0  0  0  0  0  0  0  0  0
    1.4631   -0.3700    0.0000 H   0  0  0  0  0  0  0  0  0  0  0  0
    2.3100   -0.5969    0.0000 H   0  0  0  0  0  0  0  0  0  0  0  0
    6.3301    1.0600    0.0000 H   0  0  0  0  0  0  0  0  0  0  0  0
    7.1962   -0.6800    0.0000 H   0  0  0  0  0  0  0  0  0  0  0  0
    8.0622    1.0600    0.0000 H   0  0  0  0  0  0  0  0  0  0  0  0
    8.9282   -0.6800    0.0000 H   0  0  0  0  0  0  0  0  0  0  0  0
   10.1042   -0.0969    0.0000 H   0  0  0  0  0  0  0  0  0  0  0  0
   10.3312    0.7500    0.0000 H   0  0  0  0  0  0  0  0  0  0  0  0
    9.4842    0.9769    0.0000 H   0  0  0  0  0  0  0  0  0  0  0  0
  1  4  1  0  0  0  0
  1  6  1  0  0  0  0
  2  6  2  0  0  0  0
  3  4  1  0  0  0  0
  3  5  1  0  0  0  0
  3 12  1  0  0  0  0
  3 13  1  0  0  0  0
  4 14  1  0  0  0  0
  4 15  1  0  0  0  0
  5 16  1  0  0  0  0
  5 17  1  0  0  0  0
  5 18  1  0  0  0  0
  6  7  1  0  0  0  0
  7  8  2  0  0  0  0
  7 19  1  0  0  0  0
  8  9  1  0  0  0  0
  8 20  1  0  0  0  0
  9 10  2  0  0  0  0
  9 21  1  0  0  0  0
 10 11  1  0  0  0  0
 10 22  1  0  0  0  0
 11 23  1  0  0  0  0
 11 24  1  0  0  0  0
 11 25  1  0  0  0  0
M  END
> <PUBCHEM_COMPOUND_CID>
5368950

> <PUBCHEM_COMPOUND_CANONICALIZED>
1

> <PUBCHEM_CACTVS_COMPLEXITY>
157

> <PUBCHEM_CACTVS_HBOND_ACCEPTOR>
2

> <PUBCHEM_CACTVS_HBOND_DONOR>
0

> <PUBCHEM_CACTVS_ROTATABLE_BOND>
5

> <PUBCHEM_CACTVS_SUBSKEYS>
AAADccBwMAAAAAAAAAAAAAAAAAAAAAAAAAAAAAAAAAAAAAAAAAAAGgAAAAAACACggAICCAAABACIACDSCAAAAAAAAAAICAAAAEAIBAAAIQACEAAAAAAAoYAAAAAAAAAAAAAAAAAAAAAAAAAAAAAAAAAAAA==

> <PUBCHEM_IUPAC_OPENEYE_NAME>
propyl (2E,4E)-hexa-2,4-dienoate

> <PUBCHEM_IUPAC_CAS_NAME>
(2E,4E)-hexa-2,4-dienoic acid propyl ester

> <PUBCHEM_IUPAC_NAME_MARKUP>
propyl (2<I>E</I>,4<I>E</I>)-hexa-2,4-dienoate

> <PUBCHEM_IUPAC_NAME>
propyl (2E,4E)-hexa-2,4-dienoate

> <PUBCHEM_IUPAC_SYSTEMATIC_NAME>
propyl (2E,4E)-hexa-2,4-dienoate

> <PUBCHEM_IUPAC_TRADITIONAL_NAME>
(2E,4E)-hexa-2,4-dienoic acid propyl ester

> <PUBCHEM_IUPAC_INCHI>
InChI=1S/C9H14O2/c1-3-5-6-7-9(10)11-8-4-2/h3,5-7H,4,8H2,1-2H3/b5-3+,7-6+

> <PUBCHEM_IUPAC_INCHIKEY>
JAVXBQKCKGHZHM-TWTPFVCWSA-N

> <PUBCHEM_XLOGP3_AA>
2.5

> <PUBCHEM_EXACT_MASS>
154.099379685

> <PUBCHEM_MOLECULAR_FORMULA>
C9H14O2

> <PUBCHEM_MOLECULAR_WEIGHT>
154.21

> <PUBCHEM_SMILES>
CCCOC(=O)/C=C/C=C/C

> <PUBCHEM_CONNECTIVITY_SMILES>
CCCOC(=O)C=CC=CC

> <PUBCHEM_CACTVS_TPSA>
26.3

> <PUBCHEM_MONOISOTOPIC_WEIGHT>
154.099379685

> <PUBCHEM_TOTAL_CHARGE>
0

> <PUBCHEM_HEAVY_ATOM_COUNT>
11

> <PUBCHEM_ATOM_DEF_STEREO_COUNT>
0

> <PUBCHEM_ATOM_UDEF_STEREO_COUNT>
0

> <PUBCHEM_BOND_DEF_STEREO_COUNT>
2

> <PUBCHEM_BOND_UDEF_STEREO_COUNT>
0

> <PUBCHEM_ISOTOPIC_ATOM_COUNT>
0

> <PUBCHEM_COMPONENT_COUNT>
1

> <PUBCHEM_CACTVS_TAUTO_COUNT>
-1

> <PUBCHEM_COORDINATE_TYPE>
1
5
255

$$$$
