5368360
  -OEChem-05122609542D

 15 15  0     0  0  0  0  0  0999 V2000
    2.0000   -0.6901    0.0000 C   0  0  0  0  0  0  0  0  0  0  0  0
    3.0000   -0.6901    0.0000 C   0  0  0  0  0  0  0  0  0  0  0  0
    2.0000   -1.6901    0.0000 C   0  0  0  0  0  0  0  0  0  0  0  0
    3.0000   -1.6901    0.0000 C   0  0  0  0  0  0  0  0  0  0  0  0
    3.7071    0.0170    0.0000 C   0  0  0  0  0  0  0  0  0  0  0  0
    3.4483    0.9830    0.0000 C   0  0  0  0  0  0  0  0  0  0  0  0
    4.1554    1.6901    0.0000 C   0  0  0  0  0  0  0  0  0  0  0  0
    2.0000   -0.0701    0.0000 H   0  0  0  0  0  0  0  0  0  0  0  0
    1.3800   -0.6901    0.0000 H   0  0  0  0  0  0  0  0  0  0  0  0
    1.5616   -2.1285    0.0000 H   0  0  0  0  0  0  0  0  0  0  0  0
    3.4384   -2.1285    0.0000 H   0  0  0  0  0  0  0  0  0  0  0  0
    4.3060   -0.1434    0.0000 H   0  0  0  0  0  0  0  0  0  0  0  0
    2.8494    1.1434    0.0000 H   0  0  0  0  0  0  0  0  0  0  0  0
    4.7543    1.5296    0.0000 H   0  0  0  0  0  0  0  0  0  0  0  0
    3.9949    2.2889    0.0000 H   0  0  0  0  0  0  0  0  0  0  0  0
  1  2  1  0  0  0  0
  1  3  1  0  0  0  0
  1  8  1  0  0  0  0
  1  9  1  0  0  0  0
  2  4  1  0  0  0  0
  2  5  2  0  0  0  0
  3  4  2  0  0  0  0
  3 10  1  0  0  0  0
  4 11  1  0  0  0  0
  5  6  1  0  0  0  0
  5 12  1  0  0  0  0
  6  7  2  0  0  0  0
  6 13  1  0  0  0  0
  7 14  1  0  0  0  0
  7 15  1  0  0  0  0
M  END
> <PUBCHEM_COMPOUND_CID>
5368360

> <PUBCHEM_COMPOUND_CANONICALIZED>
1

> <PUBCHEM_CACTVS_COMPLEXITY>
127

> <PUBCHEM_CACTVS_HBOND_ACCEPTOR>
0

> <PUBCHEM_CACTVS_HBOND_DONOR>
0

> <PUBCHEM_CACTVS_ROTATABLE_BOND>
1

> <PUBCHEM_CACTVS_SUBSKEYS>
AAADccBgAAAAAAAAAAAAAAAAAABAAAAAAAAAAAAAAAAAAAAAAAAAGAAAAAAADACAAAAAAAAAAACAAiBCAAAAAAAgAAAICAAAAAgIAAAAAQAAAAAAAAAIgAIAAAAAAAAAAAAAAAAAAAAAAAAAAAAAAAAAAA==

> <PUBCHEM_IUPAC_OPENEYE_NAME>
(3E)-3-allylidenecyclobutene

> <PUBCHEM_IUPAC_CAS_NAME>
(3E)-3-prop-2-enylidenecyclobutene

> <PUBCHEM_IUPAC_NAME_MARKUP>
(3<I>E</I>)-3-prop-2-enylidenecyclobutene

> <PUBCHEM_IUPAC_NAME>
(3E)-3-prop-2-enylidenecyclobutene

> <PUBCHEM_IUPAC_SYSTEMATIC_NAME>
(3E)-3-prop-2-enylidenecyclobutene

> <PUBCHEM_IUPAC_TRADITIONAL_NAME>
(3E)-3-allylidenecyclobutene

> <PUBCHEM_IUPAC_INCHI>
InChI=1S/C7H8/c1-2-4-7-5-3-6-7/h2-5H,1,6H2/b7-4-

> <PUBCHEM_IUPAC_INCHIKEY>
USDJJNZZCBONHN-DAXSKMNVSA-N

> <PUBCHEM_XLOGP3_AA>
2.1

> <PUBCHEM_EXACT_MASS>
92.062600255

> <PUBCHEM_MOLECULAR_FORMULA>
C7H8

> <PUBCHEM_MOLECULAR_WEIGHT>
92.14

> <PUBCHEM_SMILES>
C=C/C=C/1\CC=C1

> <PUBCHEM_CONNECTIVITY_SMILES>
C=CC=C1CC=C1

> <PUBCHEM_CACTVS_TPSA>
0

> <PUBCHEM_MONOISOTOPIC_WEIGHT>
92.062600255

> <PUBCHEM_TOTAL_CHARGE>
0

> <PUBCHEM_HEAVY_ATOM_COUNT>
7

> <PUBCHEM_ATOM_DEF_STEREO_COUNT>
0

> <PUBCHEM_ATOM_UDEF_STEREO_COUNT>
0

> <PUBCHEM_BOND_DEF_STEREO_COUNT>
1

> <PUBCHEM_BOND_UDEF_STEREO_COUNT>
0

> <PUBCHEM_ISOTOPIC_ATOM_COUNT>
0

> <PUBCHEM_COMPONENT_COUNT>
1

> <PUBCHEM_CACTVS_TAUTO_COUNT>
-1

> <PUBCHEM_COORDINATE_TYPE>
1
5
255

$$$$
