537279
  -OEChem-05122608352D

 59 58  0     0  0  0  0  0  0999 V2000
    5.0981   -0.6830    0.0000 F   0  0  0  0  0  0  0  0  0  0  0  0
    4.0981    1.0490    0.0000 F   0  0  0  0  0  0  0  0  0  0  0  0
    3.2320    0.5490    0.0000 F   0  0  0  0  0  0  0  0  0  0  0  0
    4.2320   -1.1830    0.0000 F   0  0  0  0  0  0  0  0  0  0  0  0
    2.0000   -1.3170    0.0000 F   0  0  0  0  0  0  0  0  0  0  0  0
    2.3660    0.0490    0.0000 F   0  0  0  0  0  0  0  0  0  0  0  0
    3.3660   -1.6830    0.0000 F   0  0  0  0  0  0  0  0  0  0  0  0
    6.3301    0.1830    0.0000 O   0  0  0  0  0  0  0  0  0  0  0  0
    5.4641    1.6830    0.0000 O   0  0  0  0  0  0  0  0  0  0  0  0
   13.2583    0.1830    0.0000 C   0  0  0  0  0  0  0  0  0  0  0  0
   12.3923    0.6830    0.0000 C   0  0  0  0  0  0  0  0  0  0  0  0
   14.1244    0.6830    0.0000 C   0  0  0  0  0  0  0  0  0  0  0  0
   11.5263    0.1830    0.0000 C   0  0  0  0  0  0  0  0  0  0  0  0
   14.9904    0.1830    0.0000 C   0  0  0  0  0  0  0  0  0  0  0  0
   10.6603    0.6830    0.0000 C   0  0  0  0  0  0  0  0  0  0  0  0
   15.8564    0.6830    0.0000 C   0  0  0  0  0  0  0  0  0  0  0  0
    9.7942    0.1830    0.0000 C   0  0  0  0  0  0  0  0  0  0  0  0
   16.7224    0.1830    0.0000 C   0  0  0  0  0  0  0  0  0  0  0  0
    8.9282    0.6830    0.0000 C   0  0  0  0  0  0  0  0  0  0  0  0
   17.5885    0.6830    0.0000 C   0  0  0  0  0  0  0  0  0  0  0  0
    8.0622    0.1830    0.0000 C   0  0  0  0  0  0  0  0  0  0  0  0
   18.4545    0.1830    0.0000 C   0  0  0  0  0  0  0  0  0  0  0  0
    7.1962    0.6830    0.0000 C   0  0  0  0  0  0  0  0  0  0  0  0
   19.3205    0.6830    0.0000 C   0  0  0  0  0  0  0  0  0  0  0  0
    5.4641    0.6830    0.0000 C   0  0  0  0  0  0  0  0  0  0  0  0
    4.5981    0.1830    0.0000 C   0  0  0  0  0  0  0  0  0  0  0  0
    3.7320   -0.3170    0.0000 C   0  0  0  0  0  0  0  0  0  0  0  0
    2.8660   -0.8170    0.0000 C   0  0  0  0  0  0  0  0  0  0  0  0
   12.8598   -0.2919    0.0000 H   0  0  0  0  0  0  0  0  0  0  0  0
   13.6569   -0.2919    0.0000 H   0  0  0  0  0  0  0  0  0  0  0  0
   12.7908    1.1580    0.0000 H   0  0  0  0  0  0  0  0  0  0  0  0
   11.9938    1.1580    0.0000 H   0  0  0  0  0  0  0  0  0  0  0  0
   14.5229    1.1580    0.0000 H   0  0  0  0  0  0  0  0  0  0  0  0
   13.7258    1.1580    0.0000 H   0  0  0  0  0  0  0  0  0  0  0  0
   11.1278   -0.2919    0.0000 H   0  0  0  0  0  0  0  0  0  0  0  0
   11.9248   -0.2919    0.0000 H   0  0  0  0  0  0  0  0  0  0  0  0
   14.5919   -0.2919    0.0000 H   0  0  0  0  0  0  0  0  0  0  0  0
   15.3889   -0.2919    0.0000 H   0  0  0  0  0  0  0  0  0  0  0  0
   11.0588    1.1580    0.0000 H   0  0  0  0  0  0  0  0  0  0  0  0
   10.2617    1.1580    0.0000 H   0  0  0  0  0  0  0  0  0  0  0  0
   16.2549    1.1580    0.0000 H   0  0  0  0  0  0  0  0  0  0  0  0
   15.4579    1.1580    0.0000 H   0  0  0  0  0  0  0  0  0  0  0  0
    9.3957   -0.2919    0.0000 H   0  0  0  0  0  0  0  0  0  0  0  0
   10.1928   -0.2919    0.0000 H   0  0  0  0  0  0  0  0  0  0  0  0
   16.3239   -0.2919    0.0000 H   0  0  0  0  0  0  0  0  0  0  0  0
   17.1210   -0.2919    0.0000 H   0  0  0  0  0  0  0  0  0  0  0  0
    9.3267    1.1580    0.0000 H   0  0  0  0  0  0  0  0  0  0  0  0
    8.5297    1.1580    0.0000 H   0  0  0  0  0  0  0  0  0  0  0  0
   17.9870    1.1580    0.0000 H   0  0  0  0  0  0  0  0  0  0  0  0
   17.1899    1.1580    0.0000 H   0  0  0  0  0  0  0  0  0  0  0  0
    7.6636   -0.2919    0.0000 H   0  0  0  0  0  0  0  0  0  0  0  0
    8.4607   -0.2919    0.0000 H   0  0  0  0  0  0  0  0  0  0  0  0
   18.0560   -0.2919    0.0000 H   0  0  0  0  0  0  0  0  0  0  0  0
   18.8530   -0.2919    0.0000 H   0  0  0  0  0  0  0  0  0  0  0  0
    7.5947    1.1580    0.0000 H   0  0  0  0  0  0  0  0  0  0  0  0
    6.7976    1.1580    0.0000 H   0  0  0  0  0  0  0  0  0  0  0  0
   19.6305    0.1461    0.0000 H   0  0  0  0  0  0  0  0  0  0  0  0
   19.8574    0.9930    0.0000 H   0  0  0  0  0  0  0  0  0  0  0  0
   19.0105    1.2200    0.0000 H   0  0  0  0  0  0  0  0  0  0  0  0
  1 26  1  0  0  0  0
  2 26  1  0  0  0  0
  3 27  1  0  0  0  0
  4 27  1  0  0  0  0
  5 28  1  0  0  0  0
  6 28  1  0  0  0  0
  7 28  1  0  0  0  0
  8 23  1  0  0  0  0
  8 25  1  0  0  0  0
  9 25  2  0  0  0  0
 10 11  1  0  0  0  0
 10 12  1  0  0  0  0
 10 29  1  0  0  0  0
 10 30  1  0  0  0  0
 11 13  1  0  0  0  0
 11 31  1  0  0  0  0
 11 32  1  0  0  0  0
 12 14  1  0  0  0  0
 12 33  1  0  0  0  0
 12 34  1  0  0  0  0
 13 15  1  0  0  0  0
 13 35  1  0  0  0  0
 13 36  1  0  0  0  0
 14 16  1  0  0  0  0
 14 37  1  0  0  0  0
 14 38  1  0  0  0  0
 15 17  1  0  0  0  0
 15 39  1  0  0  0  0
 15 40  1  0  0  0  0
 16 18  1  0  0  0  0
 16 41  1  0  0  0  0
 16 42  1  0  0  0  0
 17 19  1  0  0  0  0
 17 43  1  0  0  0  0
 17 44  1  0  0  0  0
 18 20  1  0  0  0  0
 18 45  1  0  0  0  0
 18 46  1  0  0  0  0
 19 21  1  0  0  0  0
 19 47  1  0  0  0  0
 19 48  1  0  0  0  0
 20 22  1  0  0  0  0
 20 49  1  0  0  0  0
 20 50  1  0  0  0  0
 21 23  1  0  0  0  0
 21 51  1  0  0  0  0
 21 52  1  0  0  0  0
 22 24  1  0  0  0  0
 22 53  1  0  0  0  0
 22 54  1  0  0  0  0
 23 55  1  0  0  0  0
 23 56  1  0  0  0  0
 24 57  1  0  0  0  0
 24 58  1  0  0  0  0
 24 59  1  0  0  0  0
 25 26  1  0  0  0  0
 26 27  1  0  0  0  0
 27 28  1  0  0  0  0
M  END
> <PUBCHEM_COMPOUND_CID>
537279

> <PUBCHEM_COMPOUND_CANONICALIZED>
1

> <PUBCHEM_CACTVS_COMPLEXITY>
423

> <PUBCHEM_CACTVS_HBOND_ACCEPTOR>
9

> <PUBCHEM_CACTVS_HBOND_DONOR>
0

> <PUBCHEM_CACTVS_ROTATABLE_BOND>
17

> <PUBCHEM_CACTVS_SUBSKEYS>
AAADceB4McAAAAAAAAAAAAAAAAAAAAAAAAAAAAAAAAAAAAAAAAAAGwAAAAAACACggBICCAAABAAIAACQCAAAAAAAAAAAAAEAAAAAABIAAAACAAAEAAAAAAGAwKAAAAAAAAAAAAAAAAAAAAAAAAAAAAAAAA==

> <PUBCHEM_IUPAC_OPENEYE_NAME>
pentadecyl 2,2,3,3,4,4,4-heptafluorobutanoate

> <PUBCHEM_IUPAC_CAS_NAME>
2,2,3,3,4,4,4-heptafluorobutanoic acid pentadecyl ester

> <PUBCHEM_IUPAC_NAME_MARKUP>
pentadecyl 2,2,3,3,4,4,4-heptafluorobutanoate

> <PUBCHEM_IUPAC_NAME>
pentadecyl 2,2,3,3,4,4,4-heptafluorobutanoate

> <PUBCHEM_IUPAC_SYSTEMATIC_NAME>
pentadecyl 2,2,3,3,4,4,4-heptakis(fluoranyl)butanoate

> <PUBCHEM_IUPAC_TRADITIONAL_NAME>
2,2,3,3,4,4,4-heptafluorobutyric acid pentadecyl ester

> <PUBCHEM_IUPAC_INCHI>
InChI=1S/C19H31F7O2/c1-2-3-4-5-6-7-8-9-10-11-12-13-14-15-28-16(27)17(20,21)18(22,23)19(24,25)26/h2-15H2,1H3

> <PUBCHEM_IUPAC_INCHIKEY>
LSNYOOKRVAXMSQ-UHFFFAOYSA-N

> <PUBCHEM_XLOGP3_AA>
9.8

> <PUBCHEM_EXACT_MASS>
424.22122736

> <PUBCHEM_MOLECULAR_FORMULA>
C19H31F7O2

> <PUBCHEM_MOLECULAR_WEIGHT>
424.4

> <PUBCHEM_SMILES>
CCCCCCCCCCCCCCCOC(=O)C(C(C(F)(F)F)(F)F)(F)F

> <PUBCHEM_CONNECTIVITY_SMILES>
CCCCCCCCCCCCCCCOC(=O)C(C(C(F)(F)F)(F)F)(F)F

> <PUBCHEM_CACTVS_TPSA>
26.3

> <PUBCHEM_MONOISOTOPIC_WEIGHT>
424.22122736

> <PUBCHEM_TOTAL_CHARGE>
0

> <PUBCHEM_HEAVY_ATOM_COUNT>
28

> <PUBCHEM_ATOM_DEF_STEREO_COUNT>
0

> <PUBCHEM_ATOM_UDEF_STEREO_COUNT>
0

> <PUBCHEM_BOND_DEF_STEREO_COUNT>
0

> <PUBCHEM_BOND_UDEF_STEREO_COUNT>
0

> <PUBCHEM_ISOTOPIC_ATOM_COUNT>
0

> <PUBCHEM_COMPONENT_COUNT>
1

> <PUBCHEM_CACTVS_TAUTO_COUNT>
-1

> <PUBCHEM_COORDINATE_TYPE>
1
5
255

$$$$
