537288
  -OEChem-05122614152D

 31 32  0     1  0  0  0  0  0999 V2000
    3.7320    2.1209    0.0000 O   0  0  0  0  0  0  0  0  0  0  0  0
    2.8660    1.6209    0.0000 O   0  0  0  0  0  0  0  0  0  0  0  0
    6.4450    0.7793    0.0000 O   0  0  0  0  0  0  0  0  0  0  0  0
    5.5339   -2.6209    0.0000 O   0  0  0  0  0  0  0  0  0  0  0  0
    3.7320    1.1209    0.0000 C   0  0  0  0  0  0  0  0  0  0  0  0
    4.4687    0.1383    0.0000 C   0  0  3  0  0  0  0  0  0  0  0  0
    4.2098   -0.8276    0.0000 C   0  0  3  0  0  0  0  0  0  0  0  0
    2.4354   -0.1728    0.0000 C   0  0  0  0  0  0  0  0  0  0  0  0
    2.9888   -1.6933    0.0000 C   0  0  0  0  0  0  0  0  0  0  0  0
    2.1598   -1.1341    0.0000 C   0  0  0  0  0  0  0  0  0  0  0  0
    5.9003   -0.0594    0.0000 C   0  0  0  0  0  0  0  0  0  0  0  0
    5.4815   -1.6223    0.0000 C   0  0  0  0  0  0  0  0  0  0  0  0
    6.2587   -0.9930    0.0000 C   0  0  0  0  0  0  0  0  0  0  0  0
    4.5981    2.6209    0.0000 C   0  0  0  0  0  0  0  0  0  0  0  0
    2.0000    1.1209    0.0000 C   0  0  0  0  0  0  0  0  0  0  0  0
    4.4732   -0.4817    0.0000 H   0  0  0  0  0  0  0  0  0  0  0  0
    4.2279   -1.4474    0.0000 H   0  0  0  0  0  0  0  0  0  0  0  0
    2.4304    0.4471    0.0000 H   0  0  0  0  0  0  0  0  0  0  0  0
    1.8211   -0.0891    0.0000 H   0  0  0  0  0  0  0  0  0  0  0  0
    2.5830   -2.1620    0.0000 H   0  0  0  0  0  0  0  0  0  0  0  0
    3.4055   -2.1524    0.0000 H   0  0  0  0  0  0  0  0  0  0  0  0
    1.5849   -0.9018    0.0000 H   0  0  0  0  0  0  0  0  0  0  0  0
    1.8687   -1.6815    0.0000 H   0  0  0  0  0  0  0  0  0  0  0  0
    6.5964   -1.5129    0.0000 H   0  0  0  0  0  0  0  0  0  0  0  0
    6.8111   -0.7115    0.0000 H   0  0  0  0  0  0  0  0  0  0  0  0
    4.9081    2.0840    0.0000 H   0  0  0  0  0  0  0  0  0  0  0  0
    5.1350    2.9309    0.0000 H   0  0  0  0  0  0  0  0  0  0  0  0
    4.2881    3.1578    0.0000 H   0  0  0  0  0  0  0  0  0  0  0  0
    1.6900    1.6578    0.0000 H   0  0  0  0  0  0  0  0  0  0  0  0
    1.4631    0.8109    0.0000 H   0  0  0  0  0  0  0  0  0  0  0  0
    2.3100    0.5840    0.0000 H   0  0  0  0  0  0  0  0  0  0  0  0
  1  5  1  0  0  0  0
  1 14  1  0  0  0  0
  2  5  1  0  0  0  0
  2 15  1  0  0  0  0
  3 11  2  0  0  0  0
  4 12  2  0  0  0  0
  5  6  1  0  0  0  0
  5  7  1  0  0  0  0
  6  8  1  0  0  0  0
  6 11  1  0  0  0  0
  6 16  1  0  0  0  0
  7  9  1  0  0  0  0
  7 12  1  0  0  0  0
  7 17  1  0  0  0  0
  8 10  1  0  0  0  0
  8 18  1  0  0  0  0
  8 19  1  0  0  0  0
  9 10  1  0  0  0  0
  9 20  1  0  0  0  0
  9 21  1  0  0  0  0
 10 22  1  0  0  0  0
 10 23  1  0  0  0  0
 11 13  1  0  0  0  0
 12 13  1  0  0  0  0
 13 24  1  0  0  0  0
 13 25  1  0  0  0  0
 14 26  1  0  0  0  0
 14 27  1  0  0  0  0
 14 28  1  0  0  0  0
 15 29  1  0  0  0  0
 15 30  1  0  0  0  0
 15 31  1  0  0  0  0
M  END
> <PUBCHEM_COMPOUND_CID>
537288

> <PUBCHEM_COMPOUND_CANONICALIZED>
1

> <PUBCHEM_CACTVS_COMPLEXITY>
269

> <PUBCHEM_CACTVS_HBOND_ACCEPTOR>
4

> <PUBCHEM_CACTVS_HBOND_DONOR>
0

> <PUBCHEM_CACTVS_ROTATABLE_BOND>
2

> <PUBCHEM_CACTVS_SUBSKEYS>
AAADceBwOAAAAAAAAAAAAAAAAAAAAAAAAAAwYAAAAAAYAAAAAAAAGgAAAAAADQSAgAICCAAABAAIAIAQAAAAAAAAAAAAAAEAAAAQABYIAAAgAAAEIAAAAAGIzuDuAAAAAAAAAAAAAAQAABAAAAAAAAAAAA==

> <PUBCHEM_IUPAC_OPENEYE_NAME>
9,9-dimethoxybicyclo[3.3.1]nonane-2,4-dione

> <PUBCHEM_IUPAC_CAS_NAME>
9,9-dimethoxybicyclo[3.3.1]nonane-2,4-dione

> <PUBCHEM_IUPAC_NAME_MARKUP>
9,9-dimethoxybicyclo[3.3.1]nonane-2,4-dione

> <PUBCHEM_IUPAC_NAME>
9,9-dimethoxybicyclo[3.3.1]nonane-2,4-dione

> <PUBCHEM_IUPAC_SYSTEMATIC_NAME>
9,9-dimethoxybicyclo[3.3.1]nonane-2,4-dione

> <PUBCHEM_IUPAC_TRADITIONAL_NAME>
9,9-dimethoxybicyclo[3.3.1]nonane-2,4-quinone

> <PUBCHEM_IUPAC_INCHI>
InChI=1S/C11H16O4/c1-14-11(15-2)7-4-3-5-8(11)10(13)6-9(7)12/h7-8H,3-6H2,1-2H3

> <PUBCHEM_IUPAC_INCHIKEY>
CFBRRDQMCNWXLH-UHFFFAOYSA-N

> <PUBCHEM_XLOGP3_AA>
0.4

> <PUBCHEM_EXACT_MASS>
212.10485899

> <PUBCHEM_MOLECULAR_FORMULA>
C11H16O4

> <PUBCHEM_MOLECULAR_WEIGHT>
212.24

> <PUBCHEM_SMILES>
COC1(C2CCCC1C(=O)CC2=O)OC

> <PUBCHEM_CONNECTIVITY_SMILES>
COC1(C2CCCC1C(=O)CC2=O)OC

> <PUBCHEM_CACTVS_TPSA>
52.6

> <PUBCHEM_MONOISOTOPIC_WEIGHT>
212.10485899

> <PUBCHEM_TOTAL_CHARGE>
0

> <PUBCHEM_HEAVY_ATOM_COUNT>
15

> <PUBCHEM_ATOM_DEF_STEREO_COUNT>
0

> <PUBCHEM_ATOM_UDEF_STEREO_COUNT>
2

> <PUBCHEM_BOND_DEF_STEREO_COUNT>
0

> <PUBCHEM_BOND_UDEF_STEREO_COUNT>
0

> <PUBCHEM_ISOTOPIC_ATOM_COUNT>
0

> <PUBCHEM_COMPONENT_COUNT>
1

> <PUBCHEM_CACTVS_TAUTO_COUNT>
-1

> <PUBCHEM_COORDINATE_TYPE>
1
5
255

> <PUBCHEM_BONDANNOTATIONS>
6  8  3
7  9  3

$$$$
