5375071
  -OEChem-05122610002D

 45 48  0     1  0  0  0  0  0999 V2000
    6.7619    0.9698    0.0000 O   0  0  0  0  0  0  0  0  0  0  0  0
    4.3053   -1.6288    0.0000 O   0  0  0  0  0  0  0  0  0  0  0  0
    4.9889    1.8590    0.0000 N   0  0  0  0  0  0  0  0  0  0  0  0
    4.3211    2.6033    0.0000 N   0  0  0  0  0  0  0  0  0  0  0  0
    5.2619    0.1038    0.0000 C   0  0  3  0  0  0  0  0  0  0  0  0
    7.2016   -0.2383    0.0000 C   0  0  0  0  0  0  0  0  0  0  0  0
    6.2619    0.1038    0.0000 C   0  0  0  0  0  0  0  0  0  0  0  0
    4.6783    0.9085    0.0000 C   0  0  0  0  0  0  0  0  0  0  0  0
    4.6783   -0.7010    0.0000 C   0  0  0  0  0  0  0  0  0  0  0  0
    3.7321    0.6038    0.0000 C   0  0  0  0  0  0  0  0  0  0  0  0
    3.7321   -0.3962    0.0000 C   0  0  0  0  0  0  0  0  0  0  0  0
    7.9676    0.4045    0.0000 C   0  0  0  0  0  0  0  0  0  0  0  0
    7.3753   -1.2230    0.0000 C   0  0  0  0  0  0  0  0  0  0  0  0
    2.8660    1.1038    0.0000 C   0  0  0  0  0  0  0  0  0  0  0  0
    2.8660   -0.8962    0.0000 C   0  0  0  0  0  0  0  0  0  0  0  0
    7.7940    1.3893    0.0000 C   0  0  0  0  0  0  0  0  0  0  0  0
    6.6092   -1.8658    0.0000 C   0  0  0  0  0  0  0  0  0  0  0  0
    8.9073    0.0625    0.0000 C   0  0  0  0  0  0  0  0  0  0  0  0
    8.3149   -1.5651    0.0000 C   0  0  0  0  0  0  0  0  0  0  0  0
    2.0000    0.6038    0.0000 C   0  0  0  0  0  0  0  0  0  0  0  0
    2.0000   -0.3962    0.0000 C   0  0  0  0  0  0  0  0  0  0  0  0
    8.5600    2.0321    0.0000 C   0  0  0  0  0  0  0  0  0  0  0  0
    6.7829   -2.8507    0.0000 C   0  0  0  0  0  0  0  0  0  0  0  0
    9.6734    0.7053    0.0000 C   0  0  0  0  0  0  0  0  0  0  0  0
    8.4886   -2.5498    0.0000 C   0  0  0  0  0  0  0  0  0  0  0  0
    9.4997    1.6901    0.0000 C   0  0  0  0  0  0  0  0  0  0  0  0
    7.7226   -3.1927    0.0000 C   0  0  0  0  0  0  0  0  0  0  0  0
    5.5436   -0.4485    0.0000 H   0  0  0  0  0  0  0  0  0  0  0  0
    6.7266   -0.6368    0.0000 H   0  0  0  0  0  0  0  0  0  0  0  0
    2.8660    1.7238    0.0000 H   0  0  0  0  0  0  0  0  0  0  0  0
    2.8660   -1.5162    0.0000 H   0  0  0  0  0  0  0  0  0  0  0  0
    7.2114    1.6014    0.0000 H   0  0  0  0  0  0  0  0  0  0  0  0
    6.0266   -1.6538    0.0000 H   0  0  0  0  0  0  0  0  0  0  0  0
    9.0150   -0.5481    0.0000 H   0  0  0  0  0  0  0  0  0  0  0  0
    8.7899   -1.1666    0.0000 H   0  0  0  0  0  0  0  0  0  0  0  0
    1.4631    0.9138    0.0000 H   0  0  0  0  0  0  0  0  0  0  0  0
    1.4631   -0.7062    0.0000 H   0  0  0  0  0  0  0  0  0  0  0  0
    8.4524    2.6427    0.0000 H   0  0  0  0  0  0  0  0  0  0  0  0
    6.3079   -3.2492    0.0000 H   0  0  0  0  0  0  0  0  0  0  0  0
   10.2560    0.4933    0.0000 H   0  0  0  0  0  0  0  0  0  0  0  0
    9.0713   -2.7618    0.0000 H   0  0  0  0  0  0  0  0  0  0  0  0
    9.9747    2.0886    0.0000 H   0  0  0  0  0  0  0  0  0  0  0  0
    7.8303   -3.8032    0.0000 H   0  0  0  0  0  0  0  0  0  0  0  0
    4.5137    3.1927    0.0000 H   0  0  0  0  0  0  0  0  0  0  0  0
    3.7144    2.4755    0.0000 H   0  0  0  0  0  0  0  0  0  0  0  0
  1  7  2  0  0  0  0
  2  9  2  0  0  0  0
  3  4  1  0  0  0  0
  3  8  2  0  0  0  0
  4 44  1  0  0  0  0
  4 45  1  0  0  0  0
  5  7  1  0  0  0  0
  5  8  1  0  0  0  0
  5  9  1  0  0  0  0
  5 28  1  0  0  0  0
  6  7  1  0  0  0  0
  6 12  1  0  0  0  0
  6 13  1  0  0  0  0
  6 29  1  0  0  0  0
  8 10  1  0  0  0  0
  9 11  1  0  0  0  0
 10 11  1  0  0  0  0
 10 14  2  0  0  0  0
 11 15  2  0  0  0  0
 12 16  2  0  0  0  0
 12 18  1  0  0  0  0
 13 17  2  0  0  0  0
 13 19  1  0  0  0  0
 14 20  1  0  0  0  0
 14 30  1  0  0  0  0
 15 21  1  0  0  0  0
 15 31  1  0  0  0  0
 16 22  1  0  0  0  0
 16 32  1  0  0  0  0
 17 23  1  0  0  0  0
 17 33  1  0  0  0  0
 18 24  2  0  0  0  0
 18 34  1  0  0  0  0
 19 25  2  0  0  0  0
 19 35  1  0  0  0  0
 20 21  2  0  0  0  0
 20 36  1  0  0  0  0
 21 37  1  0  0  0  0
 22 26  2  0  0  0  0
 22 38  1  0  0  0  0
 23 27  2  0  0  0  0
 23 39  1  0  0  0  0
 24 26  1  0  0  0  0
 24 40  1  0  0  0  0
 25 27  1  0  0  0  0
 25 41  1  0  0  0  0
 26 42  1  0  0  0  0
 27 43  1  0  0  0  0
M  END
> <PUBCHEM_COMPOUND_CID>
5375071

> <PUBCHEM_COMPOUND_CANONICALIZED>
1

> <PUBCHEM_CACTVS_COMPLEXITY>
569

> <PUBCHEM_CACTVS_HBOND_ACCEPTOR>
4

> <PUBCHEM_CACTVS_HBOND_DONOR>
1

> <PUBCHEM_CACTVS_ROTATABLE_BOND>
4

> <PUBCHEM_CACTVS_SUBSKEYS>
AAADceB7MAAAAAAAAAAAAAAAAAAAAYAAAAAwYMAAAAAAAGABUAAAHgAYAAAADQyBmAAwAIACAACoA6ByAAACAAAkAAAIiAEwANgIILKIFRCAIQAggAAIiYcIiMCOgAAAAAAQAAAAAAAAACAAAQAACAAAAA==

> <PUBCHEM_IUPAC_OPENEYE_NAME>
(3Z)-2-(2,2-diphenylacetyl)-3-hydrazinylidene-indan-1-one

> <PUBCHEM_IUPAC_CAS_NAME>
(3Z)-3-hydrazinylidene-2-(1-oxo-2,2-diphenylethyl)-1-indenone

> <PUBCHEM_IUPAC_NAME_MARKUP>
(3<I>Z</I>)-2-(2,2-diphenylacetyl)-3-hydrazinylideneinden-1-one

> <PUBCHEM_IUPAC_NAME>
(3Z)-2-(2,2-diphenylacetyl)-3-hydrazinylideneinden-1-one

> <PUBCHEM_IUPAC_SYSTEMATIC_NAME>
(3Z)-3-diazanylidene-2-(2,2-diphenylethanoyl)inden-1-one

> <PUBCHEM_IUPAC_TRADITIONAL_NAME>
(3Z)-2-(2,2-diphenylacetyl)-3-hydrazono-indan-1-one

> <PUBCHEM_IUPAC_INCHI>
InChI=1S/C23H18N2O2/c24-25-21-17-13-7-8-14-18(17)22(26)20(21)23(27)19(15-9-3-1-4-10-15)16-11-5-2-6-12-16/h1-14,19-20H,24H2/b25-21+

> <PUBCHEM_IUPAC_INCHIKEY>
QBGMRRUHCFHZLC-NJNXFGOHSA-N

> <PUBCHEM_XLOGP3>
3.6

> <PUBCHEM_EXACT_MASS>
354.136827821

> <PUBCHEM_MOLECULAR_FORMULA>
C23H18N2O2

> <PUBCHEM_MOLECULAR_WEIGHT>
354.4

> <PUBCHEM_SMILES>
C1=CC=C(C=C1)C(C2=CC=CC=C2)C(=O)C3/C(=N/N)/C4=CC=CC=C4C3=O

> <PUBCHEM_CONNECTIVITY_SMILES>
C1=CC=C(C=C1)C(C2=CC=CC=C2)C(=O)C3C(=NN)C4=CC=CC=C4C3=O

> <PUBCHEM_CACTVS_TPSA>
72.5

> <PUBCHEM_MONOISOTOPIC_WEIGHT>
354.136827821

> <PUBCHEM_TOTAL_CHARGE>
0

> <PUBCHEM_HEAVY_ATOM_COUNT>
27

> <PUBCHEM_ATOM_DEF_STEREO_COUNT>
0

> <PUBCHEM_ATOM_UDEF_STEREO_COUNT>
1

> <PUBCHEM_BOND_DEF_STEREO_COUNT>
1

> <PUBCHEM_BOND_UDEF_STEREO_COUNT>
0

> <PUBCHEM_ISOTOPIC_ATOM_COUNT>
0

> <PUBCHEM_COMPONENT_COUNT>
1

> <PUBCHEM_CACTVS_TAUTO_COUNT>
-1

> <PUBCHEM_COORDINATE_TYPE>
1
5
255

> <PUBCHEM_BONDANNOTATIONS>
10  11  8
10  14  8
11  15  8
12  16  8
12  18  8
13  17  8
13  19  8
14  20  8
15  21  8
16  22  8
17  23  8
18  24  8
19  25  8
20  21  8
22  26  8
23  27  8
24  26  8
25  27  8
5  7  3

$$$$
