5376315
  -OEChem-05122609522D

 38 39  0     0  0  0  0  0  0999 V2000
    3.0000    0.2500    0.0000 C   0  0  0  0  0  0  0  0  0  0  0  0
    3.0000   -0.7500    0.0000 C   0  0  0  0  0  0  0  0  0  0  0  0
    3.0000    1.2500    0.0000 C   0  0  0  0  0  0  0  0  0  0  0  0
    4.0000    0.2500    0.0000 C   0  0  0  0  0  0  0  0  0  0  0  0
    2.0000    0.2500    0.0000 C   0  0  0  0  0  0  0  0  0  0  0  0
    3.8660    1.7500    0.0000 C   0  0  0  0  0  0  0  0  0  0  0  0
    2.1340   -1.2500    0.0000 C   0  0  0  0  0  0  0  0  0  0  0  0
    3.8660   -1.2500    0.0000 C   0  0  0  0  0  0  0  0  0  0  0  0
    4.7321    1.2500    0.0000 C   0  0  0  0  0  0  0  0  0  0  0  0
    3.8660    2.7500    0.0000 C   0  0  0  0  0  0  0  0  0  0  0  0
    2.1340   -2.2500    0.0000 C   0  0  0  0  0  0  0  0  0  0  0  0
    3.8660   -2.2500    0.0000 C   0  0  0  0  0  0  0  0  0  0  0  0
    3.0000   -2.7500    0.0000 C   0  0  0  0  0  0  0  0  0  0  0  0
    4.7321    0.2500    0.0000 C   0  0  0  0  0  0  0  0  0  0  0  0
    5.5981    1.7500    0.0000 C   0  0  0  0  0  0  0  0  0  0  0  0
    5.5981   -0.2500    0.0000 C   0  0  0  0  0  0  0  0  0  0  0  0
    6.4641    1.2500    0.0000 C   0  0  0  0  0  0  0  0  0  0  0  0
    6.4641    0.2500    0.0000 C   0  0  0  0  0  0  0  0  0  0  0  0
    2.4631    1.5600    0.0000 H   0  0  0  0  0  0  0  0  0  0  0  0
    4.0000   -0.3700    0.0000 H   0  0  0  0  0  0  0  0  0  0  0  0
    4.6200    0.2500    0.0000 H   0  0  0  0  0  0  0  0  0  0  0  0
    4.0000    0.8700    0.0000 H   0  0  0  0  0  0  0  0  0  0  0  0
    2.0000    0.8700    0.0000 H   0  0  0  0  0  0  0  0  0  0  0  0
    1.3800    0.2500    0.0000 H   0  0  0  0  0  0  0  0  0  0  0  0
    2.0000   -0.3700    0.0000 H   0  0  0  0  0  0  0  0  0  0  0  0
    1.5970   -0.9400    0.0000 H   0  0  0  0  0  0  0  0  0  0  0  0
    4.4030   -0.9400    0.0000 H   0  0  0  0  0  0  0  0  0  0  0  0
    4.4860    2.7500    0.0000 H   0  0  0  0  0  0  0  0  0  0  0  0
    3.8660    3.3700    0.0000 H   0  0  0  0  0  0  0  0  0  0  0  0
    3.2460    2.7500    0.0000 H   0  0  0  0  0  0  0  0  0  0  0  0
    1.5970   -2.5600    0.0000 H   0  0  0  0  0  0  0  0  0  0  0  0
    4.4030   -2.5600    0.0000 H   0  0  0  0  0  0  0  0  0  0  0  0
    3.0000   -3.3700    0.0000 H   0  0  0  0  0  0  0  0  0  0  0  0
    4.1951   -0.0600    0.0000 H   0  0  0  0  0  0  0  0  0  0  0  0
    5.5981    2.3700    0.0000 H   0  0  0  0  0  0  0  0  0  0  0  0
    5.5981   -0.8700    0.0000 H   0  0  0  0  0  0  0  0  0  0  0  0
    7.0010    1.5600    0.0000 H   0  0  0  0  0  0  0  0  0  0  0  0
    7.0010   -0.0600    0.0000 H   0  0  0  0  0  0  0  0  0  0  0  0
  1  2  1  0  0  0  0
  1  3  1  0  0  0  0
  1  4  1  0  0  0  0
  1  5  1  0  0  0  0
  2  7  2  0  0  0  0
  2  8  1  0  0  0  0
  3  6  2  0  0  0  0
  3 19  1  0  0  0  0
  4 20  1  0  0  0  0
  4 21  1  0  0  0  0
  4 22  1  0  0  0  0
  5 23  1  0  0  0  0
  5 24  1  0  0  0  0
  5 25  1  0  0  0  0
  6  9  1  0  0  0  0
  6 10  1  0  0  0  0
  7 11  1  0  0  0  0
  7 26  1  0  0  0  0
  8 12  2  0  0  0  0
  8 27  1  0  0  0  0
  9 14  2  0  0  0  0
  9 15  1  0  0  0  0
 10 28  1  0  0  0  0
 10 29  1  0  0  0  0
 10 30  1  0  0  0  0
 11 13  2  0  0  0  0
 11 31  1  0  0  0  0
 12 13  1  0  0  0  0
 12 32  1  0  0  0  0
 13 33  1  0  0  0  0
 14 16  1  0  0  0  0
 14 34  1  0  0  0  0
 15 17  2  0  0  0  0
 15 35  1  0  0  0  0
 16 18  2  0  0  0  0
 16 36  1  0  0  0  0
 17 18  1  0  0  0  0
 17 37  1  0  0  0  0
 18 38  1  0  0  0  0
M  END
> <PUBCHEM_COMPOUND_CID>
5376315

> <PUBCHEM_COMPOUND_CANONICALIZED>
1

> <PUBCHEM_CACTVS_COMPLEXITY>
272

> <PUBCHEM_CACTVS_HBOND_ACCEPTOR>
0

> <PUBCHEM_CACTVS_HBOND_DONOR>
0

> <PUBCHEM_CACTVS_ROTATABLE_BOND>
3

> <PUBCHEM_CACTVS_SUBSKEYS>
AAADceB4AAAAAAAAAAAAAAAAAAAAAAAAAAAwYAAAAAAAAAABQAAAGAAAAAAADgCAGAAyAIAAAACAAiBCAAACAAAgAAAIiAAAAIgIICKAERCAIAAggAAIiAcAgMAPgAAAAAAAAAAAAAAAAAAAAAAAAAAAAA==

> <PUBCHEM_IUPAC_OPENEYE_NAME>
[(Z)-1,1-dimethyl-3-phenyl-but-2-enyl]benzene

> <PUBCHEM_IUPAC_CAS_NAME>
[(Z)-2-methyl-4-phenylpent-3-en-2-yl]benzene

> <PUBCHEM_IUPAC_NAME_MARKUP>
[(<I>Z</I>)-2-methyl-4-phenylpent-3-en-2-yl]benzene

> <PUBCHEM_IUPAC_NAME>
[(Z)-2-methyl-4-phenylpent-3-en-2-yl]benzene

> <PUBCHEM_IUPAC_SYSTEMATIC_NAME>
[(Z)-2-methyl-4-phenyl-pent-3-en-2-yl]benzene

> <PUBCHEM_IUPAC_TRADITIONAL_NAME>
[(Z)-1,1-dimethyl-3-phenyl-but-2-enyl]benzene

> <PUBCHEM_IUPAC_INCHI>
InChI=1S/C18H20/c1-15(16-10-6-4-7-11-16)14-18(2,3)17-12-8-5-9-13-17/h4-14H,1-3H3/b15-14-

> <PUBCHEM_IUPAC_INCHIKEY>
VOOVDZMAQQVAEW-PFONDFGASA-N

> <PUBCHEM_XLOGP3_AA>
6

> <PUBCHEM_EXACT_MASS>
236.156500638

> <PUBCHEM_MOLECULAR_FORMULA>
C18H20

> <PUBCHEM_MOLECULAR_WEIGHT>
236.4

> <PUBCHEM_SMILES>
C/C(=C/C(C)(C)C1=CC=CC=C1)/C2=CC=CC=C2

> <PUBCHEM_CONNECTIVITY_SMILES>
CC(=CC(C)(C)C1=CC=CC=C1)C2=CC=CC=C2

> <PUBCHEM_CACTVS_TPSA>
0

> <PUBCHEM_MONOISOTOPIC_WEIGHT>
236.156500638

> <PUBCHEM_TOTAL_CHARGE>
0

> <PUBCHEM_HEAVY_ATOM_COUNT>
18

> <PUBCHEM_ATOM_DEF_STEREO_COUNT>
0

> <PUBCHEM_ATOM_UDEF_STEREO_COUNT>
0

> <PUBCHEM_BOND_DEF_STEREO_COUNT>
1

> <PUBCHEM_BOND_UDEF_STEREO_COUNT>
0

> <PUBCHEM_ISOTOPIC_ATOM_COUNT>
0

> <PUBCHEM_COMPONENT_COUNT>
1

> <PUBCHEM_CACTVS_TAUTO_COUNT>
-1

> <PUBCHEM_COORDINATE_TYPE>
1
5
255

> <PUBCHEM_BONDANNOTATIONS>
11  13  8
12  13  8
14  16  8
15  17  8
16  18  8
17  18  8
2  7  8
2  8  8
7  11  8
8  12  8
9  14  8
9  15  8

$$$$
