540006
  -OEChem-05122609422D

 35 37  0     1  0  0  0  0  0999 V2000
    4.5977    0.5881    0.0000 O   0  0  0  0  0  0  0  0  0  0  0  0
    2.0000    0.5041    0.0000 O   0  0  0  0  0  0  0  0  0  0  0  0
    4.5692   -0.2718    0.0000 C   0  0  3  0  0  0  0  0  0  0  0  0
    3.7602    0.3160    0.0000 C   0  0  3  0  0  0  0  0  0  0  0  0
    4.0692    1.2670    0.0000 C   0  0  3  0  0  0  0  0  0  0  0  0
    4.4763   -1.3093    0.0000 C   0  0  0  0  0  0  0  0  0  0  0  0
    5.3782    0.3160    0.0000 C   0  0  0  0  0  0  0  0  0  0  0  0
    5.0692    1.2670    0.0000 C   0  0  0  0  0  0  0  0  0  0  0  0
    2.8022   -0.0930    0.0000 C   0  0  0  0  0  0  0  0  0  0  0  0
    3.5280   -1.7403    0.0000 C   0  0  0  0  0  0  0  0  0  0  0  0
    2.9512    0.9038    0.0000 C   0  0  0  0  0  0  0  0  0  0  0  0
    3.7602    2.2181    0.0000 C   0  0  0  0  0  0  0  0  0  0  0  0
    2.6853   -1.1280    0.0000 C   0  0  0  0  0  0  0  0  0  0  0  0
    4.8936   -2.2181    0.0000 C   0  0  0  0  0  0  0  0  0  0  0  0
    5.4720   -1.4023    0.0000 C   0  0  0  0  0  0  0  0  0  0  0  0
    5.6882   -0.2210    0.0000 H   0  0  0  0  0  0  0  0  0  0  0  0
    5.9446    0.5681    0.0000 H   0  0  0  0  0  0  0  0  0  0  0  0
    5.6756    1.3959    0.0000 H   0  0  0  0  0  0  0  0  0  0  0  0
    5.0044    1.8836    0.0000 H   0  0  0  0  0  0  0  0  0  0  0  0
    3.0831   -2.1721    0.0000 H   0  0  0  0  0  0  0  0  0  0  0  0
    3.8773   -2.2525    0.0000 H   0  0  0  0  0  0  0  0  0  0  0  0
    3.3156    1.4053    0.0000 H   0  0  0  0  0  0  0  0  0  0  0  0
    2.4496    1.2682    0.0000 H   0  0  0  0  0  0  0  0  0  0  0  0
    2.5867    0.4022    0.0000 H   0  0  0  0  0  0  0  0  0  0  0  0
    4.3498    2.4097    0.0000 H   0  0  0  0  0  0  0  0  0  0  0  0
    3.5686    2.8077    0.0000 H   0  0  0  0  0  0  0  0  0  0  0  0
    3.1705    2.0265    0.0000 H   0  0  0  0  0  0  0  0  0  0  0  0
    2.0902   -0.9541    0.0000 H   0  0  0  0  0  0  0  0  0  0  0  0
    2.4121   -1.6846    0.0000 H   0  0  0  0  0  0  0  0  0  0  0  0
    4.3301   -2.4768    0.0000 H   0  0  0  0  0  0  0  0  0  0  0  0
    5.1523   -2.7815    0.0000 H   0  0  0  0  0  0  0  0  0  0  0  0
    5.4570   -1.9594    0.0000 H   0  0  0  0  0  0  0  0  0  0  0  0
    5.4143   -2.0196    0.0000 H   0  0  0  0  0  0  0  0  0  0  0  0
    6.0893   -1.4600    0.0000 H   0  0  0  0  0  0  0  0  0  0  0  0
    5.5296   -0.7850    0.0000 H   0  0  0  0  0  0  0  0  0  0  0  0
  1  3  1  0  0  0  0
  1  5  1  0  0  0  0
  2  9  2  0  0  0  0
  3  4  1  0  0  0  0
  3  6  1  0  0  0  0
  3  7  1  0  0  0  0
  4  5  1  0  0  0  0
  4  9  1  0  0  0  0
  4 11  1  0  0  0  0
  5  8  1  0  0  0  0
  5 12  1  0  0  0  0
  6 10  1  0  0  0  0
  6 14  1  0  0  0  0
  6 15  1  0  0  0  0
  7  8  1  0  0  0  0
  7 16  1  0  0  0  0
  7 17  1  0  0  0  0
  8 18  1  0  0  0  0
  8 19  1  0  0  0  0
  9 13  1  0  0  0  0
 10 13  1  0  0  0  0
 10 20  1  0  0  0  0
 10 21  1  0  0  0  0
 11 22  1  0  0  0  0
 11 23  1  0  0  0  0
 11 24  1  0  0  0  0
 12 25  1  0  0  0  0
 12 26  1  0  0  0  0
 12 27  1  0  0  0  0
 13 28  1  0  0  0  0
 13 29  1  0  0  0  0
 14 30  1  0  0  0  0
 14 31  1  0  0  0  0
 14 32  1  0  0  0  0
 15 33  1  0  0  0  0
 15 34  1  0  0  0  0
 15 35  1  0  0  0  0
M  END
> <PUBCHEM_COMPOUND_CID>
540006

> <PUBCHEM_COMPOUND_CANONICALIZED>
1

> <PUBCHEM_CACTVS_COMPLEXITY>
360

> <PUBCHEM_CACTVS_HBOND_ACCEPTOR>
2

> <PUBCHEM_CACTVS_HBOND_DONOR>
0

> <PUBCHEM_CACTVS_ROTATABLE_BOND>
0

> <PUBCHEM_CACTVS_SUBSKEYS>
AAADceBwMAAAAAAAAAAAAAAAAABIAaIAAAAwAAAAAAASAGAAAAAAGgAAAAAADkSAgAACAAAABAAIAIAQAAAAAAAAAAAAAAEAAAAAABYAAAACAAAEIAAAAAGIzPDPgAAAAAAAAAAAAAQAADAAAYAADAAAAA==

> <PUBCHEM_IUPAC_OPENEYE_NAME>
2,2,6,7-tetramethyl-10-oxatricyclo[5.2.1.01,6]decan-5-one

> <PUBCHEM_IUPAC_CAS_NAME>
2,2,6,7-tetramethyl-10-oxatricyclo[5.2.1.01,6]decan-5-one

> <PUBCHEM_IUPAC_NAME_MARKUP>
2,2,6,7-tetramethyl-10-oxatricyclo[5.2.1.0<SUP>1,6</SUP>]decan-5-one

> <PUBCHEM_IUPAC_NAME>
2,2,6,7-tetramethyl-10-oxatricyclo[5.2.1.01,6]decan-5-one

> <PUBCHEM_IUPAC_SYSTEMATIC_NAME>
2,2,6,7-tetramethyl-10-oxatricyclo[5.2.1.01,6]decan-5-one

> <PUBCHEM_IUPAC_TRADITIONAL_NAME>
2,2,6,7-tetramethyl-10-oxatricyclo[5.2.1.01,6]decan-5-one

> <PUBCHEM_IUPAC_INCHI>
InChI=1S/C13H20O2/c1-10(2)6-5-9(14)12(4)11(3)7-8-13(10,12)15-11/h5-8H2,1-4H3

> <PUBCHEM_IUPAC_INCHIKEY>
ISABMWNDKIGJCM-UHFFFAOYSA-N

> <PUBCHEM_XLOGP3_AA>
1.9

> <PUBCHEM_EXACT_MASS>
208.146329876

> <PUBCHEM_MOLECULAR_FORMULA>
C13H20O2

> <PUBCHEM_MOLECULAR_WEIGHT>
208.30

> <PUBCHEM_SMILES>
CC1(CCC(=O)C2(C13CCC2(O3)C)C)C

> <PUBCHEM_CONNECTIVITY_SMILES>
CC1(CCC(=O)C2(C13CCC2(O3)C)C)C

> <PUBCHEM_CACTVS_TPSA>
26.3

> <PUBCHEM_MONOISOTOPIC_WEIGHT>
208.146329876

> <PUBCHEM_TOTAL_CHARGE>
0

> <PUBCHEM_HEAVY_ATOM_COUNT>
15

> <PUBCHEM_ATOM_DEF_STEREO_COUNT>
0

> <PUBCHEM_ATOM_UDEF_STEREO_COUNT>
3

> <PUBCHEM_BOND_DEF_STEREO_COUNT>
0

> <PUBCHEM_BOND_UDEF_STEREO_COUNT>
0

> <PUBCHEM_ISOTOPIC_ATOM_COUNT>
0

> <PUBCHEM_COMPONENT_COUNT>
1

> <PUBCHEM_CACTVS_TAUTO_COUNT>
-1

> <PUBCHEM_COORDINATE_TYPE>
1
5
255

> <PUBCHEM_BONDANNOTATIONS>
3  7  3
4  11  3
5  12  3

$$$$
