543423
  -OEChem-05122609502D

 48 49  0     1  0  0  0  0  0999 V2000
    9.5622   -5.6160    0.0000 O   0  0  0  0  0  0  0  0  0  0  0  0
    2.5000    5.6160    0.0000 O   0  0  0  0  0  0  0  0  0  0  0  0
    9.0622   -4.7500    0.0000 C   0  0  3  0  0  0  0  0  0  0  0  0
    3.0000    4.7500    0.0000 C   0  0  3  0  0  0  0  0  0  0  0  0
    8.1962   -4.2500    0.0000 C   0  0  0  0  0  0  0  0  0  0  0  0
    3.8660    4.2500    0.0000 C   0  0  0  0  0  0  0  0  0  0  0  0
    8.1962   -3.2500    0.0000 C   0  0  0  0  0  0  0  0  0  0  0  0
    3.8660    3.2500    0.0000 C   0  0  0  0  0  0  0  0  0  0  0  0
   10.0622   -4.7500    0.0000 C   0  0  0  0  0  0  0  0  0  0  0  0
    2.0000    4.7500    0.0000 C   0  0  0  0  0  0  0  0  0  0  0  0
    7.3301   -2.7500    0.0000 C   0  0  0  0  0  0  0  0  0  0  0  0
    4.7321    2.7500    0.0000 C   0  0  0  0  0  0  0  0  0  0  0  0
    7.3301   -1.7500    0.0000 C   0  0  0  0  0  0  0  0  0  0  0  0
    4.7321    1.7500    0.0000 C   0  0  0  0  0  0  0  0  0  0  0  0
    6.4641   -1.2500    0.0000 C   0  0  0  0  0  0  0  0  0  0  0  0
    5.5981    1.2500    0.0000 C   0  0  0  0  0  0  0  0  0  0  0  0
    6.4641   -0.2500    0.0000 C   0  0  0  0  0  0  0  0  0  0  0  0
    5.5981    0.2500    0.0000 C   0  0  0  0  0  0  0  0  0  0  0  0
    8.6238   -5.1884    0.0000 H   0  0  0  0  0  0  0  0  0  0  0  0
    3.4384    5.1884    0.0000 H   0  0  0  0  0  0  0  0  0  0  0  0
    7.5856   -4.1423    0.0000 H   0  0  0  0  0  0  0  0  0  0  0  0
    7.9841   -4.8326    0.0000 H   0  0  0  0  0  0  0  0  0  0  0  0
    4.4766    4.1423    0.0000 H   0  0  0  0  0  0  0  0  0  0  0  0
    4.0781    4.8326    0.0000 H   0  0  0  0  0  0  0  0  0  0  0  0
    8.8067   -3.3577    0.0000 H   0  0  0  0  0  0  0  0  0  0  0  0
    8.4082   -2.6674    0.0000 H   0  0  0  0  0  0  0  0  0  0  0  0
    3.2554    3.3577    0.0000 H   0  0  0  0  0  0  0  0  0  0  0  0
    3.6540    2.6674    0.0000 H   0  0  0  0  0  0  0  0  0  0  0  0
   10.6448   -4.9621    0.0000 H   0  0  0  0  0  0  0  0  0  0  0  0
   10.1698   -4.1394    0.0000 H   0  0  0  0  0  0  0  0  0  0  0  0
    1.4174    4.9621    0.0000 H   0  0  0  0  0  0  0  0  0  0  0  0
    1.8923    4.1394    0.0000 H   0  0  0  0  0  0  0  0  0  0  0  0
    6.7196   -2.6423    0.0000 H   0  0  0  0  0  0  0  0  0  0  0  0
    7.1181   -3.3326    0.0000 H   0  0  0  0  0  0  0  0  0  0  0  0
    5.3426    2.6423    0.0000 H   0  0  0  0  0  0  0  0  0  0  0  0
    4.9441    3.3326    0.0000 H   0  0  0  0  0  0  0  0  0  0  0  0
    7.9407   -1.8577    0.0000 H   0  0  0  0  0  0  0  0  0  0  0  0
    7.5422   -1.1674    0.0000 H   0  0  0  0  0  0  0  0  0  0  0  0
    4.1215    1.8577    0.0000 H   0  0  0  0  0  0  0  0  0  0  0  0
    4.5200    1.1674    0.0000 H   0  0  0  0  0  0  0  0  0  0  0  0
    5.8535   -1.1423    0.0000 H   0  0  0  0  0  0  0  0  0  0  0  0
    6.2521   -1.8326    0.0000 H   0  0  0  0  0  0  0  0  0  0  0  0
    6.2087    1.1423    0.0000 H   0  0  0  0  0  0  0  0  0  0  0  0
    5.8101    1.8326    0.0000 H   0  0  0  0  0  0  0  0  0  0  0  0
    7.0747   -0.3577    0.0000 H   0  0  0  0  0  0  0  0  0  0  0  0
    6.6762    0.3326    0.0000 H   0  0  0  0  0  0  0  0  0  0  0  0
    4.9875    0.3577    0.0000 H   0  0  0  0  0  0  0  0  0  0  0  0
    5.3860   -0.3326    0.0000 H   0  0  0  0  0  0  0  0  0  0  0  0
  1  3  1  0  0  0  0
  1  9  1  0  0  0  0
  2  4  1  0  0  0  0
  2 10  1  0  0  0  0
  3  5  1  0  0  0  0
  3  9  1  0  0  0  0
  3 19  1  0  0  0  0
  4  6  1  0  0  0  0
  4 10  1  0  0  0  0
  4 20  1  0  0  0  0
  5  7  1  0  0  0  0
  5 21  1  0  0  0  0
  5 22  1  0  0  0  0
  6  8  1  0  0  0  0
  6 23  1  0  0  0  0
  6 24  1  0  0  0  0
  7 11  1  0  0  0  0
  7 25  1  0  0  0  0
  7 26  1  0  0  0  0
  8 12  1  0  0  0  0
  8 27  1  0  0  0  0
  8 28  1  0  0  0  0
  9 29  1  0  0  0  0
  9 30  1  0  0  0  0
 10 31  1  0  0  0  0
 10 32  1  0  0  0  0
 11 13  1  0  0  0  0
 11 33  1  0  0  0  0
 11 34  1  0  0  0  0
 12 14  1  0  0  0  0
 12 35  1  0  0  0  0
 12 36  1  0  0  0  0
 13 15  1  0  0  0  0
 13 37  1  0  0  0  0
 13 38  1  0  0  0  0
 14 16  1  0  0  0  0
 14 39  1  0  0  0  0
 14 40  1  0  0  0  0
 15 17  1  0  0  0  0
 15 41  1  0  0  0  0
 15 42  1  0  0  0  0
 16 18  1  0  0  0  0
 16 43  1  0  0  0  0
 16 44  1  0  0  0  0
 17 18  1  0  0  0  0
 17 45  1  0  0  0  0
 17 46  1  0  0  0  0
 18 47  1  0  0  0  0
 18 48  1  0  0  0  0
M  END
> <PUBCHEM_COMPOUND_CID>
543423

> <PUBCHEM_COMPOUND_CANONICALIZED>
1

> <PUBCHEM_CACTVS_COMPLEXITY>
183

> <PUBCHEM_CACTVS_HBOND_ACCEPTOR>
2

> <PUBCHEM_CACTVS_HBOND_DONOR>
0

> <PUBCHEM_CACTVS_ROTATABLE_BOND>
13

> <PUBCHEM_CACTVS_SUBSKEYS>
AAADceB4MAAAAAAAAAAAAAAAEiQAAAAAAAAAAAAAAAAAAAAAAAAAGgAAAAAACBSggAIAAAAABAAAAAAAAAAAAAAAAAAAAAAAAAAAAAIAAAAAAAAEAAAAAAGAwKAAAAAAAAAAAAAAAAAAAAAAAAAAAAAAAA==

> <PUBCHEM_IUPAC_OPENEYE_NAME>
2-[12-(oxiran-2-yl)dodecyl]oxirane

> <PUBCHEM_IUPAC_CAS_NAME>
2-[12-(2-oxiranyl)dodecyl]oxirane

> <PUBCHEM_IUPAC_NAME_MARKUP>
2-[12-(oxiran-2-yl)dodecyl]oxirane

> <PUBCHEM_IUPAC_NAME>
2-[12-(oxiran-2-yl)dodecyl]oxirane

> <PUBCHEM_IUPAC_SYSTEMATIC_NAME>
2-[12-(oxiran-2-yl)dodecyl]oxirane

> <PUBCHEM_IUPAC_TRADITIONAL_NAME>
2-[12-(oxiran-2-yl)dodecyl]oxirane

> <PUBCHEM_IUPAC_INCHI>
InChI=1S/C16H30O2/c1(3-5-7-9-11-15-13-17-15)2-4-6-8-10-12-16-14-18-16/h15-16H,1-14H2

> <PUBCHEM_IUPAC_INCHIKEY>
KHOGZDMZNQXOFX-UHFFFAOYSA-N

> <PUBCHEM_XLOGP3_AA>
5.4

> <PUBCHEM_EXACT_MASS>
254.224580195

> <PUBCHEM_MOLECULAR_FORMULA>
C16H30O2

> <PUBCHEM_MOLECULAR_WEIGHT>
254.41

> <PUBCHEM_SMILES>
C1C(O1)CCCCCCCCCCCCC2CO2

> <PUBCHEM_CONNECTIVITY_SMILES>
C1C(O1)CCCCCCCCCCCCC2CO2

> <PUBCHEM_CACTVS_TPSA>
25.1

> <PUBCHEM_MONOISOTOPIC_WEIGHT>
254.224580195

> <PUBCHEM_TOTAL_CHARGE>
0

> <PUBCHEM_HEAVY_ATOM_COUNT>
18

> <PUBCHEM_ATOM_DEF_STEREO_COUNT>
0

> <PUBCHEM_ATOM_UDEF_STEREO_COUNT>
2

> <PUBCHEM_BOND_DEF_STEREO_COUNT>
0

> <PUBCHEM_BOND_UDEF_STEREO_COUNT>
0

> <PUBCHEM_ISOTOPIC_ATOM_COUNT>
0

> <PUBCHEM_COMPONENT_COUNT>
1

> <PUBCHEM_CACTVS_TAUTO_COUNT>
-1

> <PUBCHEM_COORDINATE_TYPE>
1
5
255

> <PUBCHEM_BONDANNOTATIONS>
3  5  3
4  6  3

$$$$
