544392
  -OEChem-05122608432D

 61 62  0     1  0  0  0  0  0999 V2000
    2.5000   -3.5311    0.0000 O   0  0  0  0  0  0  0  0  0  0  0  0
    4.0000   -4.3971    0.0000 O   0  0  0  0  0  0  0  0  0  0  0  0
   10.8660    1.2990    0.0000 C   0  0  3  0  0  0  0  0  0  0  0  0
   12.3660    2.1651    0.0000 C   0  0  3  0  0  0  0  0  0  0  0  0
   10.0000    0.7990    0.0000 C   0  0  3  0  0  0  0  0  0  0  0  0
   13.2321    2.6651    0.0000 C   0  0  3  0  0  0  0  0  0  0  0  0
   11.8660    1.2990    0.0000 C   0  0  0  0  0  0  0  0  0  0  0  0
   10.0000    1.7990    0.0000 C   0  0  0  0  0  0  0  0  0  0  0  0
   12.3660    3.1651    0.0000 C   0  0  0  0  0  0  0  0  0  0  0  0
    9.5000   -0.0670    0.0000 C   0  0  0  0  0  0  0  0  0  0  0  0
   14.2321    2.6651    0.0000 C   0  0  0  0  0  0  0  0  0  0  0  0
    8.5000   -0.0670    0.0000 C   0  0  0  0  0  0  0  0  0  0  0  0
   14.7321    3.5311    0.0000 C   0  0  0  0  0  0  0  0  0  0  0  0
    8.0000   -0.9330    0.0000 C   0  0  0  0  0  0  0  0  0  0  0  0
   15.7321    3.5311    0.0000 C   0  0  0  0  0  0  0  0  0  0  0  0
    7.0000   -0.9330    0.0000 C   0  0  0  0  0  0  0  0  0  0  0  0
   16.2320    4.3971    0.0000 C   0  0  0  0  0  0  0  0  0  0  0  0
    6.5000   -1.7990    0.0000 C   0  0  0  0  0  0  0  0  0  0  0  0
    5.5000   -1.7990    0.0000 C   0  0  0  0  0  0  0  0  0  0  0  0
    5.0000   -2.6651    0.0000 C   0  0  0  0  0  0  0  0  0  0  0  0
    4.0000   -2.6651    0.0000 C   0  0  0  0  0  0  0  0  0  0  0  0
    3.5000   -3.5311    0.0000 C   0  0  0  0  0  0  0  0  0  0  0  0
    2.0000   -4.3971    0.0000 C   0  0  0  0  0  0  0  0  0  0  0  0
   11.0265    0.7002    0.0000 H   0  0  0  0  0  0  0  0  0  0  0  0
   11.7672    2.3255    0.0000 H   0  0  0  0  0  0  0  0  0  0  0  0
   10.4384    0.3606    0.0000 H   0  0  0  0  0  0  0  0  0  0  0  0
   13.3925    2.0662    0.0000 H   0  0  0  0  0  0  0  0  0  0  0  0
   11.7584    0.6885    0.0000 H   0  0  0  0  0  0  0  0  0  0  0  0
   12.4486    1.0870    0.0000 H   0  0  0  0  0  0  0  0  0  0  0  0
   10.2121    2.3817    0.0000 H   0  0  0  0  0  0  0  0  0  0  0  0
    9.3894    1.9067    0.0000 H   0  0  0  0  0  0  0  0  0  0  0  0
   12.5781    3.7477    0.0000 H   0  0  0  0  0  0  0  0  0  0  0  0
   11.7554    3.2727    0.0000 H   0  0  0  0  0  0  0  0  0  0  0  0
    9.3923   -0.6776    0.0000 H   0  0  0  0  0  0  0  0  0  0  0  0
   10.0826   -0.2790    0.0000 H   0  0  0  0  0  0  0  0  0  0  0  0
   14.1244    2.0545    0.0000 H   0  0  0  0  0  0  0  0  0  0  0  0
   14.8147    2.4530    0.0000 H   0  0  0  0  0  0  0  0  0  0  0  0
    8.6077    0.5436    0.0000 H   0  0  0  0  0  0  0  0  0  0  0  0
    7.9174    0.1451    0.0000 H   0  0  0  0  0  0  0  0  0  0  0  0
   14.8397    4.1417    0.0000 H   0  0  0  0  0  0  0  0  0  0  0  0
   14.1494    3.7431    0.0000 H   0  0  0  0  0  0  0  0  0  0  0  0
    7.8923   -1.5436    0.0000 H   0  0  0  0  0  0  0  0  0  0  0  0
    8.5826   -1.1451    0.0000 H   0  0  0  0  0  0  0  0  0  0  0  0
   15.6244    2.9205    0.0000 H   0  0  0  0  0  0  0  0  0  0  0  0
   16.3147    3.3190    0.0000 H   0  0  0  0  0  0  0  0  0  0  0  0
    7.1077   -0.3224    0.0000 H   0  0  0  0  0  0  0  0  0  0  0  0
    6.4174   -0.7210    0.0000 H   0  0  0  0  0  0  0  0  0  0  0  0
   16.7690    4.0871    0.0000 H   0  0  0  0  0  0  0  0  0  0  0  0
   16.5420    4.9341    0.0000 H   0  0  0  0  0  0  0  0  0  0  0  0
   15.6951    4.7071    0.0000 H   0  0  0  0  0  0  0  0  0  0  0  0
    6.3923   -2.4096    0.0000 H   0  0  0  0  0  0  0  0  0  0  0  0
    7.0826   -2.0111    0.0000 H   0  0  0  0  0  0  0  0  0  0  0  0
    5.6077   -1.1885    0.0000 H   0  0  0  0  0  0  0  0  0  0  0  0
    4.9174   -1.5870    0.0000 H   0  0  0  0  0  0  0  0  0  0  0  0
    4.8923   -3.2756    0.0000 H   0  0  0  0  0  0  0  0  0  0  0  0
    5.5826   -2.8771    0.0000 H   0  0  0  0  0  0  0  0  0  0  0  0
    4.1077   -2.0545    0.0000 H   0  0  0  0  0  0  0  0  0  0  0  0
    3.4174   -2.4530    0.0000 H   0  0  0  0  0  0  0  0  0  0  0  0
    1.4631   -4.0871    0.0000 H   0  0  0  0  0  0  0  0  0  0  0  0
    1.6900   -4.9341    0.0000 H   0  0  0  0  0  0  0  0  0  0  0  0
    2.5369   -4.7071    0.0000 H   0  0  0  0  0  0  0  0  0  0  0  0
  1 22  1  0  0  0  0
  1 23  1  0  0  0  0
  2 22  2  0  0  0  0
  3  5  1  0  0  0  0
  3  7  1  0  0  0  0
  3  8  1  0  0  0  0
  3 24  1  0  0  0  0
  4  6  1  0  0  0  0
  4  7  1  0  0  0  0
  4  9  1  0  0  0  0
  4 25  1  0  0  0  0
  5  8  1  0  0  0  0
  5 10  1  0  0  0  0
  5 26  1  0  0  0  0
  6  9  1  0  0  0  0
  6 11  1  0  0  0  0
  6 27  1  0  0  0  0
  7 28  1  0  0  0  0
  7 29  1  0  0  0  0
  8 30  1  0  0  0  0
  8 31  1  0  0  0  0
  9 32  1  0  0  0  0
  9 33  1  0  0  0  0
 10 12  1  0  0  0  0
 10 34  1  0  0  0  0
 10 35  1  0  0  0  0
 11 13  1  0  0  0  0
 11 36  1  0  0  0  0
 11 37  1  0  0  0  0
 12 14  1  0  0  0  0
 12 38  1  0  0  0  0
 12 39  1  0  0  0  0
 13 15  1  0  0  0  0
 13 40  1  0  0  0  0
 13 41  1  0  0  0  0
 14 16  1  0  0  0  0
 14 42  1  0  0  0  0
 14 43  1  0  0  0  0
 15 17  1  0  0  0  0
 15 44  1  0  0  0  0
 15 45  1  0  0  0  0
 16 18  1  0  0  0  0
 16 46  1  0  0  0  0
 16 47  1  0  0  0  0
 17 48  1  0  0  0  0
 17 49  1  0  0  0  0
 17 50  1  0  0  0  0
 18 19  1  0  0  0  0
 18 51  1  0  0  0  0
 18 52  1  0  0  0  0
 19 20  1  0  0  0  0
 19 53  1  0  0  0  0
 19 54  1  0  0  0  0
 20 21  1  0  0  0  0
 20 55  1  0  0  0  0
 20 56  1  0  0  0  0
 21 22  1  0  0  0  0
 21 57  1  0  0  0  0
 21 58  1  0  0  0  0
 23 59  1  0  0  0  0
 23 60  1  0  0  0  0
 23 61  1  0  0  0  0
M  END
> <PUBCHEM_COMPOUND_CID>
544392

> <PUBCHEM_COMPOUND_CANONICALIZED>
1

> <PUBCHEM_CACTVS_COMPLEXITY>
339

> <PUBCHEM_CACTVS_HBOND_ACCEPTOR>
2

> <PUBCHEM_CACTVS_HBOND_DONOR>
0

> <PUBCHEM_CACTVS_ROTATABLE_BOND>
15

> <PUBCHEM_CACTVS_SUBSKEYS>
AAADcfB4MAAAAAAAAAAAAAAAGDAAAAAAAAAAAAAAAAAAAAAAAAAAGgAAAAAADQCAgAICCAAABAAIAACQCAAAAAAAAAAAAAEAAAAAABIAAAAAAAAEAAAAAAGIyOCOAAAAAAAAAAAAAAAAAAAAAAAAAAAAAA==

> <PUBCHEM_IUPAC_OPENEYE_NAME>
methyl 9-[2-[(2-butylcyclopropyl)methyl]cyclopropyl]nonanoate

> <PUBCHEM_IUPAC_CAS_NAME>
9-[2-[(2-butylcyclopropyl)methyl]cyclopropyl]nonanoic acid methyl ester

> <PUBCHEM_IUPAC_NAME_MARKUP>
methyl 9-[2-[(2-butylcyclopropyl)methyl]cyclopropyl]nonanoate

> <PUBCHEM_IUPAC_NAME>
methyl 9-[2-[(2-butylcyclopropyl)methyl]cyclopropyl]nonanoate

> <PUBCHEM_IUPAC_SYSTEMATIC_NAME>
methyl 9-[2-[(2-butylcyclopropyl)methyl]cyclopropyl]nonanoate

> <PUBCHEM_IUPAC_TRADITIONAL_NAME>
9-[2-[(2-butylcyclopropyl)methyl]cyclopropyl]pelargonic acid methyl ester

> <PUBCHEM_IUPAC_INCHI>
InChI=1S/C21H38O2/c1-3-4-11-17-14-19(17)16-20-15-18(20)12-9-7-5-6-8-10-13-21(22)23-2/h17-20H,3-16H2,1-2H3

> <PUBCHEM_IUPAC_INCHIKEY>
NCGWEDSIWFSAMB-UHFFFAOYSA-N

> <PUBCHEM_XLOGP3_AA>
8

> <PUBCHEM_EXACT_MASS>
322.287180451

> <PUBCHEM_MOLECULAR_FORMULA>
C21H38O2

> <PUBCHEM_MOLECULAR_WEIGHT>
322.5

> <PUBCHEM_SMILES>
CCCCC1CC1CC2CC2CCCCCCCCC(=O)OC

> <PUBCHEM_CONNECTIVITY_SMILES>
CCCCC1CC1CC2CC2CCCCCCCCC(=O)OC

> <PUBCHEM_CACTVS_TPSA>
26.3

> <PUBCHEM_MONOISOTOPIC_WEIGHT>
322.287180451

> <PUBCHEM_TOTAL_CHARGE>
0

> <PUBCHEM_HEAVY_ATOM_COUNT>
23

> <PUBCHEM_ATOM_DEF_STEREO_COUNT>
0

> <PUBCHEM_ATOM_UDEF_STEREO_COUNT>
4

> <PUBCHEM_BOND_DEF_STEREO_COUNT>
0

> <PUBCHEM_BOND_UDEF_STEREO_COUNT>
0

> <PUBCHEM_ISOTOPIC_ATOM_COUNT>
0

> <PUBCHEM_COMPONENT_COUNT>
1

> <PUBCHEM_CACTVS_TAUTO_COUNT>
-1

> <PUBCHEM_COORDINATE_TYPE>
1
5
255

> <PUBCHEM_BONDANNOTATIONS>
3  7  3
4  7  3
5  10  3
6  11  3

$$$$
