544787
  -OEChem-05122608442D

 39 39  0     1  0  0  0  0  0999 V2000
    3.4499    2.9488    0.0000 C   0  0  0  0  0  0  0  0  0  0  0  0
    2.9499    1.4099    0.0000 C   0  0  3  0  0  0  0  0  0  0  0  0
    2.6409    2.3610    0.0000 C   0  0  0  0  0  0  0  0  0  0  0  0
    4.2589    2.3610    0.0000 C   0  0  0  0  0  0  0  0  0  0  0  0
    3.9499    1.4099    0.0000 C   0  0  0  0  0  0  0  0  0  0  0  0
    2.3621    0.6009    0.0000 C   0  0  0  0  0  0  0  0  0  0  0  0
    4.0377    3.7578    0.0000 C   0  0  0  0  0  0  0  0  0  0  0  0
    2.8621    3.7578    0.0000 C   0  0  0  0  0  0  0  0  0  0  0  0
    2.7688   -0.3126    0.0000 C   0  0  0  0  0  0  0  0  0  0  0  0
    2.1810   -1.1217    0.0000 C   0  0  0  0  0  0  0  0  0  0  0  0
    2.5878   -2.0352    0.0000 C   0  0  0  0  0  0  0  0  0  0  0  0
    2.0000   -2.8442    0.0000 C   0  0  0  0  0  0  0  0  0  0  0  0
    2.4067   -3.7578    0.0000 C   0  0  0  0  0  0  0  0  0  0  0  0
    3.2314    0.8575    0.0000 H   0  0  0  0  0  0  0  0  0  0  0  0
    2.3309    2.8979    0.0000 H   0  0  0  0  0  0  0  0  0  0  0  0
    2.0745    2.1088    0.0000 H   0  0  0  0  0  0  0  0  0  0  0  0
    4.8253    2.1088    0.0000 H   0  0  0  0  0  0  0  0  0  0  0  0
    4.5689    2.8979    0.0000 H   0  0  0  0  0  0  0  0  0  0  0  0
    3.8851    0.7933    0.0000 H   0  0  0  0  0  0  0  0  0  0  0  0
    4.5563    1.2810    0.0000 H   0  0  0  0  0  0  0  0  0  0  0  0
    1.9314    1.0469    0.0000 H   0  0  0  0  0  0  0  0  0  0  0  0
    1.8481    0.2542    0.0000 H   0  0  0  0  0  0  0  0  0  0  0  0
    4.5393    3.3934    0.0000 H   0  0  0  0  0  0  0  0  0  0  0  0
    4.4021    4.2594    0.0000 H   0  0  0  0  0  0  0  0  0  0  0  0
    3.5361    4.1222    0.0000 H   0  0  0  0  0  0  0  0  0  0  0  0
    3.3637    4.1222    0.0000 H   0  0  0  0  0  0  0  0  0  0  0  0
    2.4977    4.2594    0.0000 H   0  0  0  0  0  0  0  0  0  0  0  0
    2.3605    3.3934    0.0000 H   0  0  0  0  0  0  0  0  0  0  0  0
    3.1995   -0.7586    0.0000 H   0  0  0  0  0  0  0  0  0  0  0  0
    3.2828    0.0341    0.0000 H   0  0  0  0  0  0  0  0  0  0  0  0
    1.7504   -0.6757    0.0000 H   0  0  0  0  0  0  0  0  0  0  0  0
    1.6670   -1.4684    0.0000 H   0  0  0  0  0  0  0  0  0  0  0  0
    3.0185   -2.4812    0.0000 H   0  0  0  0  0  0  0  0  0  0  0  0
    3.1018   -1.6885    0.0000 H   0  0  0  0  0  0  0  0  0  0  0  0
    1.5693   -2.3982    0.0000 H   0  0  0  0  0  0  0  0  0  0  0  0
    1.4860   -3.1909    0.0000 H   0  0  0  0  0  0  0  0  0  0  0  0
    1.8403   -4.0100    0.0000 H   0  0  0  0  0  0  0  0  0  0  0  0
    2.6589   -4.3242    0.0000 H   0  0  0  0  0  0  0  0  0  0  0  0
    2.9731   -3.5056    0.0000 H   0  0  0  0  0  0  0  0  0  0  0  0
  1  3  1  0  0  0  0
  1  4  1  0  0  0  0
  1  7  1  0  0  0  0
  1  8  1  0  0  0  0
  2  3  1  0  0  0  0
  2  5  1  0  0  0  0
  2  6  1  0  0  0  0
  2 14  1  0  0  0  0
  3 15  1  0  0  0  0
  3 16  1  0  0  0  0
  4  5  1  0  0  0  0
  4 17  1  0  0  0  0
  4 18  1  0  0  0  0
  5 19  1  0  0  0  0
  5 20  1  0  0  0  0
  6  9  1  0  0  0  0
  6 21  1  0  0  0  0
  6 22  1  0  0  0  0
  7 23  1  0  0  0  0
  7 24  1  0  0  0  0
  7 25  1  0  0  0  0
  8 26  1  0  0  0  0
  8 27  1  0  0  0  0
  8 28  1  0  0  0  0
  9 10  1  0  0  0  0
  9 29  1  0  0  0  0
  9 30  1  0  0  0  0
 10 11  1  0  0  0  0
 10 31  1  0  0  0  0
 10 32  1  0  0  0  0
 11 12  1  0  0  0  0
 11 33  1  0  0  0  0
 11 34  1  0  0  0  0
 12 13  1  0  0  0  0
 12 35  1  0  0  0  0
 12 36  1  0  0  0  0
 13 37  1  0  0  0  0
 13 38  1  0  0  0  0
 13 39  1  0  0  0  0
M  END
> <PUBCHEM_COMPOUND_CID>
544787

> <PUBCHEM_COMPOUND_CANONICALIZED>
1

> <PUBCHEM_CACTVS_COMPLEXITY>
135

> <PUBCHEM_CACTVS_HBOND_ACCEPTOR>
0

> <PUBCHEM_CACTVS_HBOND_DONOR>
0

> <PUBCHEM_CACTVS_ROTATABLE_BOND>
5

> <PUBCHEM_CACTVS_SUBSKEYS>
AAADceBwAAAAAAAAAAAAAAAAAAAAAYAAAAAAAAAAAAAAAAAAAAAAGAAAAAAADwCAAAACAAAAAAAAAAAAAAAAAAAAAAAAAAAAAAAAAAIAAAAAAAAAAAAAAAEAgMAPAAAAAAAAAAAAAAAAAAAAAQAAAAAAAA==

> <PUBCHEM_IUPAC_OPENEYE_NAME>
3-hexyl-1,1-dimethyl-cyclopentane

> <PUBCHEM_IUPAC_CAS_NAME>
3-hexyl-1,1-dimethylcyclopentane

> <PUBCHEM_IUPAC_NAME_MARKUP>
3-hexyl-1,1-dimethylcyclopentane

> <PUBCHEM_IUPAC_NAME>
3-hexyl-1,1-dimethylcyclopentane

> <PUBCHEM_IUPAC_SYSTEMATIC_NAME>
3-hexyl-1,1-dimethyl-cyclopentane

> <PUBCHEM_IUPAC_TRADITIONAL_NAME>
3-hexyl-1,1-dimethyl-cyclopentane

> <PUBCHEM_IUPAC_INCHI>
InChI=1S/C13H26/c1-4-5-6-7-8-12-9-10-13(2,3)11-12/h12H,4-11H2,1-3H3

> <PUBCHEM_IUPAC_INCHIKEY>
SACQRZQXAFXBGK-UHFFFAOYSA-N

> <PUBCHEM_XLOGP3_AA>
6.3

> <PUBCHEM_EXACT_MASS>
182.203450829

> <PUBCHEM_MOLECULAR_FORMULA>
C13H26

> <PUBCHEM_MOLECULAR_WEIGHT>
182.35

> <PUBCHEM_SMILES>
CCCCCCC1CCC(C1)(C)C

> <PUBCHEM_CONNECTIVITY_SMILES>
CCCCCCC1CCC(C1)(C)C

> <PUBCHEM_CACTVS_TPSA>
0

> <PUBCHEM_MONOISOTOPIC_WEIGHT>
182.203450829

> <PUBCHEM_TOTAL_CHARGE>
0

> <PUBCHEM_HEAVY_ATOM_COUNT>
13

> <PUBCHEM_ATOM_DEF_STEREO_COUNT>
0

> <PUBCHEM_ATOM_UDEF_STEREO_COUNT>
1

> <PUBCHEM_BOND_DEF_STEREO_COUNT>
0

> <PUBCHEM_BOND_UDEF_STEREO_COUNT>
0

> <PUBCHEM_ISOTOPIC_ATOM_COUNT>
0

> <PUBCHEM_COMPONENT_COUNT>
1

> <PUBCHEM_CACTVS_TAUTO_COUNT>
-1

> <PUBCHEM_COORDINATE_TYPE>
1
5
255

> <PUBCHEM_BONDANNOTATIONS>
2  6  3

$$$$
