545265
  -OEChem-05122608592D

 49 52  0     1  0  0  0  0  0999 V2000
    5.9980    0.0542    0.0000 O   0  0  0  0  0  0  0  0  0  0  0  0
    4.6890    1.0052    0.0000 C   0  0  3  0  0  0  0  0  0  0  0  0
    4.3800    0.0542    0.0000 C   0  0  3  0  0  0  0  0  0  0  0  0
    5.1890   -0.5336    0.0000 C   0  0  3  0  0  0  0  0  0  0  0  0
    4.0040    1.7900    0.0000 C   0  0  3  0  0  0  0  0  0  0  0  0
    2.3230    2.3205    0.0000 C   0  0  3  0  0  0  0  0  0  0  0  0
    2.6616    0.5906    0.0000 C   0  0  3  0  0  0  0  0  0  0  0  0
    5.6890    1.0052    0.0000 C   0  0  0  0  0  0  0  0  0  0  0  0
    3.3646   -0.1781    0.0000 C   0  0  0  0  0  0  0  0  0  0  0  0
    3.3145    2.5336    0.0000 C   0  0  0  0  0  0  0  0  0  0  0  0
    2.9835    1.5812    0.0000 C   0  0  0  0  0  0  0  0  0  0  0  0
    2.0000    1.3592    0.0000 C   0  0  0  0  0  0  0  0  0  0  0  0
    5.1890   -1.5336    0.0000 C   0  0  0  0  0  0  0  0  0  0  0  0
    4.9980    1.9563    0.0000 C   0  0  0  0  0  0  0  0  0  0  0  0
    6.6400    1.3142    0.0000 C   0  0  0  0  0  0  0  0  0  0  0  0
    5.6890    2.0052    0.0000 C   0  0  0  0  0  0  0  0  0  0  0  0
    5.1890   -2.5336    0.0000 C   0  0  0  0  0  0  0  0  0  0  0  0
    6.1890   -1.5336    0.0000 C   0  0  0  0  0  0  0  0  0  0  0  0
    4.1890   -1.5336    0.0000 C   0  0  0  0  0  0  0  0  0  0  0  0
    4.2557   -0.5533    0.0000 H   0  0  0  0  0  0  0  0  0  0  0  0
    3.8056    1.2026    0.0000 H   0  0  0  0  0  0  0  0  0  0  0  0
    1.9099    2.7829    0.0000 H   0  0  0  0  0  0  0  0  0  0  0  0
    2.1979    0.1791    0.0000 H   0  0  0  0  0  0  0  0  0  0  0  0
    2.8422   -0.5120    0.0000 H   0  0  0  0  0  0  0  0  0  0  0  0
    3.6042   -0.7499    0.0000 H   0  0  0  0  0  0  0  0  0  0  0  0
    3.8368    2.8677    0.0000 H   0  0  0  0  0  0  0  0  0  0  0  0
    3.0786    3.1070    0.0000 H   0  0  0  0  0  0  0  0  0  0  0  0
    2.9651    2.2010    0.0000 H   0  0  0  0  0  0  0  0  0  0  0  0
    2.3698    1.6691    0.0000 H   0  0  0  0  0  0  0  0  0  0  0  0
    1.4567    1.6579    0.0000 H   0  0  0  0  0  0  0  0  0  0  0  0
    1.6095    0.8776    0.0000 H   0  0  0  0  0  0  0  0  0  0  0  0
    5.5877    1.7647    0.0000 H   0  0  0  0  0  0  0  0  0  0  0  0
    5.1896    2.5459    0.0000 H   0  0  0  0  0  0  0  0  0  0  0  0
    4.4084    2.1479    0.0000 H   0  0  0  0  0  0  0  0  0  0  0  0
    6.8316    0.7246    0.0000 H   0  0  0  0  0  0  0  0  0  0  0  0
    7.2297    1.5058    0.0000 H   0  0  0  0  0  0  0  0  0  0  0  0
    6.4485    1.9039    0.0000 H   0  0  0  0  0  0  0  0  0  0  0  0
    6.3090    2.0052    0.0000 H   0  0  0  0  0  0  0  0  0  0  0  0
    5.6890    2.6252    0.0000 H   0  0  0  0  0  0  0  0  0  0  0  0
    5.0690    2.0052    0.0000 H   0  0  0  0  0  0  0  0  0  0  0  0
    4.5690   -2.5336    0.0000 H   0  0  0  0  0  0  0  0  0  0  0  0
    5.1890   -3.1536    0.0000 H   0  0  0  0  0  0  0  0  0  0  0  0
    5.8090   -2.5336    0.0000 H   0  0  0  0  0  0  0  0  0  0  0  0
    6.1890   -2.1536    0.0000 H   0  0  0  0  0  0  0  0  0  0  0  0
    6.8090   -1.5336    0.0000 H   0  0  0  0  0  0  0  0  0  0  0  0
    6.1890   -0.9136    0.0000 H   0  0  0  0  0  0  0  0  0  0  0  0
    4.1890   -0.9136    0.0000 H   0  0  0  0  0  0  0  0  0  0  0  0
    3.5690   -1.5336    0.0000 H   0  0  0  0  0  0  0  0  0  0  0  0
    4.1890   -2.1536    0.0000 H   0  0  0  0  0  0  0  0  0  0  0  0
  1  4  1  0  0  0  0
  1  8  1  0  0  0  0
  2  3  1  0  0  0  0
  2  5  1  0  0  0  0
  2  8  1  0  0  0  0
  2 14  1  0  0  0  0
  3  4  1  0  0  0  0
  3  9  1  0  0  0  0
  3 20  1  0  0  0  0
  4  6  1  0  0  0  0
  4 13  1  0  0  0  0
  5 10  1  0  0  0  0
  5 11  1  0  0  0  0
  5 21  1  0  0  0  0
  6 10  1  0  0  0  0
  6 12  1  0  0  0  0
  6 22  1  0  0  0  0
  7  9  1  0  0  0  0
  7 11  1  0  0  0  0
  7 12  1  0  0  0  0
  7 23  1  0  0  0  0
  8 15  1  0  0  0  0
  8 16  1  0  0  0  0
  9 24  1  0  0  0  0
  9 25  1  0  0  0  0
 10 26  1  0  0  0  0
 10 27  1  0  0  0  0
 11 28  1  0  0  0  0
 11 29  1  0  0  0  0
 12 30  1  0  0  0  0
 12 31  1  0  0  0  0
 13 17  1  0  0  0  0
 13 18  1  0  0  0  0
 13 19  1  0  0  0  0
 14 32  1  0  0  0  0
 14 33  1  0  0  0  0
 14 34  1  0  0  0  0
 15 35  1  0  0  0  0
 15 36  1  0  0  0  0
 15 37  1  0  0  0  0
 16 38  1  0  0  0  0
 16 39  1  0  0  0  0
 16 40  1  0  0  0  0
 17 41  1  0  0  0  0
 17 42  1  0  0  0  0
 17 43  1  0  0  0  0
 18 44  1  0  0  0  0
 18 45  1  0  0  0  0
 18 46  1  0  0  0  0
 19 47  1  0  0  0  0
 19 48  1  0  0  0  0
 19 49  1  0  0  0  0
M  END
> <PUBCHEM_COMPOUND_CID>
545265

> <PUBCHEM_COMPOUND_CANONICALIZED>
1

> <PUBCHEM_CACTVS_COMPLEXITY>
431

> <PUBCHEM_CACTVS_HBOND_ACCEPTOR>
1

> <PUBCHEM_CACTVS_HBOND_DONOR>
0

> <PUBCHEM_CACTVS_ROTATABLE_BOND>
1

> <PUBCHEM_CACTVS_SUBSKEYS>
AAADceB4IAAAAAAAAAAAAAAAAAAAASAAAAAwYMGABIAAAAAAAAAAGgAAAAAAD0SAgAACAAAABAAAAAAAAAAAAAAAAAAAAAAAAAAAAAIAAAACAAAEAAAAAAGAwPAPgAAAAAAAAADAAAYAADAAAAAAAAAAAA==

> <PUBCHEM_IUPAC_OPENEYE_NAME>
2-tert-butyl-4,4,5-trimethyl-3-oxatetracyclo[6.3.1.02,6.05,10]dodecane

> <PUBCHEM_IUPAC_CAS_NAME>
2-tert-butyl-4,4,5-trimethyl-3-oxatetracyclo[6.3.1.02,6.05,10]dodecane

> <PUBCHEM_IUPAC_NAME_MARKUP>
2-<I>tert</I>-butyl-4,4,5-trimethyl-3-oxatetracyclo[6.3.1.0<SUP>2,6</SUP>.0<SUP>5,10</SUP>]dodecane

> <PUBCHEM_IUPAC_NAME>
2-tert-butyl-4,4,5-trimethyl-3-oxatetracyclo[6.3.1.02,6.05,10]dodecane

> <PUBCHEM_IUPAC_SYSTEMATIC_NAME>
2-tert-butyl-4,4,5-trimethyl-3-oxatetracyclo[6.3.1.02,6.05,10]dodecane

> <PUBCHEM_IUPAC_TRADITIONAL_NAME>
2-tert-butyl-4,4,5-trimethyl-3-oxatetracyclo[6.3.1.02,6.05,10]dodecane

> <PUBCHEM_IUPAC_INCHI>
InChI=1S/C18H30O/c1-15(2,3)18-13-8-11-7-12(10-13)17(6,14(18)9-11)16(4,5)19-18/h11-14H,7-10H2,1-6H3

> <PUBCHEM_IUPAC_INCHIKEY>
CYMWZZACFUOBTC-UHFFFAOYSA-N

> <PUBCHEM_XLOGP3_AA>
4.7

> <PUBCHEM_EXACT_MASS>
262.229665576

> <PUBCHEM_MOLECULAR_FORMULA>
C18H30O

> <PUBCHEM_MOLECULAR_WEIGHT>
262.4

> <PUBCHEM_SMILES>
CC1(C2(C3CC4CC(C3)C(C2C4)(O1)C(C)(C)C)C)C

> <PUBCHEM_CONNECTIVITY_SMILES>
CC1(C2(C3CC4CC(C3)C(C2C4)(O1)C(C)(C)C)C)C

> <PUBCHEM_CACTVS_TPSA>
9.2

> <PUBCHEM_MONOISOTOPIC_WEIGHT>
262.229665576

> <PUBCHEM_TOTAL_CHARGE>
0

> <PUBCHEM_HEAVY_ATOM_COUNT>
19

> <PUBCHEM_ATOM_DEF_STEREO_COUNT>
0

> <PUBCHEM_ATOM_UDEF_STEREO_COUNT>
6

> <PUBCHEM_BOND_DEF_STEREO_COUNT>
0

> <PUBCHEM_BOND_UDEF_STEREO_COUNT>
0

> <PUBCHEM_ISOTOPIC_ATOM_COUNT>
0

> <PUBCHEM_COMPONENT_COUNT>
1

> <PUBCHEM_CACTVS_TAUTO_COUNT>
-1

> <PUBCHEM_COORDINATE_TYPE>
1
5
255

> <PUBCHEM_BONDANNOTATIONS>
2  14  3
3  9  3
4  6  3
5  11  3
6  12  3
7  11  3

$$$$
