545303
  -OEChem-05122609032D

 44 45  0     0  0  0  0  0  0999 V2000
    5.5878   -0.8090    0.0000 O   0  0  0  0  0  0  0  0  0  0  0  0
    2.0000   -0.0000    0.0000 O   0  0  0  0  0  0  0  0  0  0  0  0
    7.3479   -1.0878    0.0000 O   0  0  0  0  0  0  0  0  0  0  0  0
    5.0000   -0.0000    0.0000 C   0  0  0  0  0  0  0  0  0  0  0  0
    5.5878    0.8090    0.0000 C   0  0  0  0  0  0  0  0  0  0  0  0
    3.5000    0.8660    0.0000 C   0  0  0  0  0  0  0  0  0  0  0  0
    3.5000   -0.8660    0.0000 C   0  0  0  0  0  0  0  0  0  0  0  0
    3.0000    1.7321    0.0000 C   0  0  0  0  0  0  0  0  0  0  0  0
    3.0000   -1.7321    0.0000 C   0  0  0  0  0  0  0  0  0  0  0  0
    4.5000    0.8660    0.0000 C   0  0  0  0  0  0  0  0  0  0  0  0
    4.5000   -0.8660    0.0000 C   0  0  0  0  0  0  0  0  0  0  0  0
    3.0000   -0.0000    0.0000 C   0  0  0  0  0  0  0  0  0  0  0  0
    6.5388    0.5000    0.0000 C   0  0  0  0  0  0  0  0  0  0  0  0
    6.5388   -0.5000    0.0000 C   0  0  0  0  0  0  0  0  0  0  0  0
    2.5000    2.5981    0.0000 C   0  0  0  0  0  0  0  0  0  0  0  0
    3.8660    2.2321    0.0000 C   0  0  0  0  0  0  0  0  0  0  0  0
    2.1340    1.2321    0.0000 C   0  0  0  0  0  0  0  0  0  0  0  0
    2.5000   -2.5981    0.0000 C   0  0  0  0  0  0  0  0  0  0  0  0
    3.8660   -2.2321    0.0000 C   0  0  0  0  0  0  0  0  0  0  0  0
    2.1340   -1.2321    0.0000 C   0  0  0  0  0  0  0  0  0  0  0  0
    5.8400    1.3754    0.0000 H   0  0  0  0  0  0  0  0  0  0  0  0
    5.0509    1.1190    0.0000 H   0  0  0  0  0  0  0  0  0  0  0  0
    4.8100    1.4030    0.0000 H   0  0  0  0  0  0  0  0  0  0  0  0
    4.8100   -1.4030    0.0000 H   0  0  0  0  0  0  0  0  0  0  0  0
    7.1555    0.4352    0.0000 H   0  0  0  0  0  0  0  0  0  0  0  0
    6.6678    1.1065    0.0000 H   0  0  0  0  0  0  0  0  0  0  0  0
    3.0369    2.9081    0.0000 H   0  0  0  0  0  0  0  0  0  0  0  0
    2.1900    3.1350    0.0000 H   0  0  0  0  0  0  0  0  0  0  0  0
    1.9631    2.2881    0.0000 H   0  0  0  0  0  0  0  0  0  0  0  0
    4.1760    1.6951    0.0000 H   0  0  0  0  0  0  0  0  0  0  0  0
    4.4030    2.5421    0.0000 H   0  0  0  0  0  0  0  0  0  0  0  0
    3.5560    2.7690    0.0000 H   0  0  0  0  0  0  0  0  0  0  0  0
    1.8240    1.7690    0.0000 H   0  0  0  0  0  0  0  0  0  0  0  0
    1.5970    0.9221    0.0000 H   0  0  0  0  0  0  0  0  0  0  0  0
    2.4440    0.6951    0.0000 H   0  0  0  0  0  0  0  0  0  0  0  0
    1.9631   -2.2881    0.0000 H   0  0  0  0  0  0  0  0  0  0  0  0
    2.1900   -3.1350    0.0000 H   0  0  0  0  0  0  0  0  0  0  0  0
    3.0369   -2.9081    0.0000 H   0  0  0  0  0  0  0  0  0  0  0  0
    3.5560   -2.7690    0.0000 H   0  0  0  0  0  0  0  0  0  0  0  0
    4.4030   -2.5421    0.0000 H   0  0  0  0  0  0  0  0  0  0  0  0
    4.1760   -1.6951    0.0000 H   0  0  0  0  0  0  0  0  0  0  0  0
    2.4440   -0.6951    0.0000 H   0  0  0  0  0  0  0  0  0  0  0  0
    1.5970   -0.9221    0.0000 H   0  0  0  0  0  0  0  0  0  0  0  0
    1.8240   -1.7690    0.0000 H   0  0  0  0  0  0  0  0  0  0  0  0
  1  4  1  0  0  0  0
  1 14  1  0  0  0  0
  2 12  2  0  0  0  0
  3 14  2  0  0  0  0
  4  5  1  0  0  0  0
  4 10  1  0  0  0  0
  4 11  1  0  0  0  0
  5 13  1  0  0  0  0
  5 21  1  0  0  0  0
  5 22  1  0  0  0  0
  6  8  1  0  0  0  0
  6 10  2  0  0  0  0
  6 12  1  0  0  0  0
  7  9  1  0  0  0  0
  7 11  2  0  0  0  0
  7 12  1  0  0  0  0
  8 15  1  0  0  0  0
  8 16  1  0  0  0  0
  8 17  1  0  0  0  0
  9 18  1  0  0  0  0
  9 19  1  0  0  0  0
  9 20  1  0  0  0  0
 10 23  1  0  0  0  0
 11 24  1  0  0  0  0
 13 14  1  0  0  0  0
 13 25  1  0  0  0  0
 13 26  1  0  0  0  0
 15 27  1  0  0  0  0
 15 28  1  0  0  0  0
 15 29  1  0  0  0  0
 16 30  1  0  0  0  0
 16 31  1  0  0  0  0
 16 32  1  0  0  0  0
 17 33  1  0  0  0  0
 17 34  1  0  0  0  0
 17 35  1  0  0  0  0
 18 36  1  0  0  0  0
 18 37  1  0  0  0  0
 18 38  1  0  0  0  0
 19 39  1  0  0  0  0
 19 40  1  0  0  0  0
 19 41  1  0  0  0  0
 20 42  1  0  0  0  0
 20 43  1  0  0  0  0
 20 44  1  0  0  0  0
M  END
> <PUBCHEM_COMPOUND_CID>
545303

> <PUBCHEM_COMPOUND_CANONICALIZED>
1

> <PUBCHEM_CACTVS_COMPLEXITY>
487

> <PUBCHEM_CACTVS_HBOND_ACCEPTOR>
3

> <PUBCHEM_CACTVS_HBOND_DONOR>
0

> <PUBCHEM_CACTVS_ROTATABLE_BOND>
2

> <PUBCHEM_CACTVS_SUBSKEYS>
AAADceB4MAAAAAAAAAAAAAAAAAAAASAAAAAgAAAAAAAAAAAAAAAAGgAAAAAADkSAgAACCAAABACIAqDSCAAAAAAgAAAACAEAAEgABBIAIAACEAAEgAAIIYOKgEANAAAAAAAAAAAAAAAAAAAAAAAAAAAAAA==

> <PUBCHEM_IUPAC_OPENEYE_NAME>
7,9-ditert-butyl-1-oxaspiro[4.5]deca-6,9-diene-2,8-dione

> <PUBCHEM_IUPAC_CAS_NAME>
7,9-ditert-butyl-1-oxaspiro[4.5]deca-6,9-diene-2,8-dione

> <PUBCHEM_IUPAC_NAME_MARKUP>
7,9-di<I>tert</I>-butyl-1-oxaspiro[4.5]deca-6,9-diene-2,8-dione

> <PUBCHEM_IUPAC_NAME>
7,9-ditert-butyl-1-oxaspiro[4.5]deca-6,9-diene-2,8-dione

> <PUBCHEM_IUPAC_SYSTEMATIC_NAME>
7,9-ditert-butyl-1-oxaspiro[4.5]deca-6,9-diene-2,8-dione

> <PUBCHEM_IUPAC_TRADITIONAL_NAME>
7,9-ditert-butyl-1-oxaspiro[4.5]deca-6,9-diene-2,8-quinone

> <PUBCHEM_IUPAC_INCHI>
InChI=1S/C17H24O3/c1-15(2,3)11-9-17(8-7-13(18)20-17)10-12(14(11)19)16(4,5)6/h9-10H,7-8H2,1-6H3

> <PUBCHEM_IUPAC_INCHIKEY>
ZTMZUYHXZPUDRF-UHFFFAOYSA-N

> <PUBCHEM_XLOGP3_AA>
3.8

> <PUBCHEM_EXACT_MASS>
276.17254462

> <PUBCHEM_MOLECULAR_FORMULA>
C17H24O3

> <PUBCHEM_MOLECULAR_WEIGHT>
276.4

> <PUBCHEM_SMILES>
CC(C)(C)C1=CC2(CCC(=O)O2)C=C(C1=O)C(C)(C)C

> <PUBCHEM_CONNECTIVITY_SMILES>
CC(C)(C)C1=CC2(CCC(=O)O2)C=C(C1=O)C(C)(C)C

> <PUBCHEM_CACTVS_TPSA>
43.4

> <PUBCHEM_MONOISOTOPIC_WEIGHT>
276.17254462

> <PUBCHEM_TOTAL_CHARGE>
0

> <PUBCHEM_HEAVY_ATOM_COUNT>
20

> <PUBCHEM_ATOM_DEF_STEREO_COUNT>
0

> <PUBCHEM_ATOM_UDEF_STEREO_COUNT>
0

> <PUBCHEM_BOND_DEF_STEREO_COUNT>
0

> <PUBCHEM_BOND_UDEF_STEREO_COUNT>
0

> <PUBCHEM_ISOTOPIC_ATOM_COUNT>
0

> <PUBCHEM_COMPONENT_COUNT>
1

> <PUBCHEM_CACTVS_TAUTO_COUNT>
-1

> <PUBCHEM_COORDINATE_TYPE>
1
5
255

$$$$
