545626
  -OEChem-05122608392D

 50 49  0     1  0  0  0  0  0999 V2000
    7.1962    1.0000    0.0000 C   0  0  3  0  0  0  0  0  0  0  0  0
    8.0622    1.5000    0.0000 C   0  0  0  0  0  0  0  0  0  0  0  0
    6.3301    1.5000    0.0000 C   0  0  0  0  0  0  0  0  0  0  0  0
    7.1962    0.0000    0.0000 C   0  0  0  0  0  0  0  0  0  0  0  0
    8.9282    1.0000    0.0000 C   0  0  0  0  0  0  0  0  0  0  0  0
    5.4641    1.0000    0.0000 C   0  0  0  0  0  0  0  0  0  0  0  0
    9.7942    1.5000    0.0000 C   0  0  0  0  0  0  0  0  0  0  0  0
    4.5981    1.5000    0.0000 C   0  0  0  0  0  0  0  0  0  0  0  0
    6.3301   -0.5000    0.0000 C   0  0  0  0  0  0  0  0  0  0  0  0
   10.6603    1.0000    0.0000 C   0  0  0  0  0  0  0  0  0  0  0  0
    3.7320    1.0000    0.0000 C   0  0  0  0  0  0  0  0  0  0  0  0
    6.3301   -1.5000    0.0000 C   0  0  0  0  0  0  0  0  0  0  0  0
   11.5263    1.5000    0.0000 C   0  0  0  0  0  0  0  0  0  0  0  0
   10.6603   -0.0000    0.0000 C   0  0  0  0  0  0  0  0  0  0  0  0
    2.8660    1.5000    0.0000 C   0  0  0  0  0  0  0  0  0  0  0  0
    2.0000    1.0000    0.0000 C   0  0  0  0  0  0  0  0  0  0  0  0
    6.6592    0.6900    0.0000 H   0  0  0  0  0  0  0  0  0  0  0  0
    8.4607    1.9750    0.0000 H   0  0  0  0  0  0  0  0  0  0  0  0
    7.6636    1.9750    0.0000 H   0  0  0  0  0  0  0  0  0  0  0  0
    6.7287    1.9750    0.0000 H   0  0  0  0  0  0  0  0  0  0  0  0
    5.9316    1.9750    0.0000 H   0  0  0  0  0  0  0  0  0  0  0  0
    7.4082   -0.5826    0.0000 H   0  0  0  0  0  0  0  0  0  0  0  0
    7.8067    0.1077    0.0000 H   0  0  0  0  0  0  0  0  0  0  0  0
    8.5297    0.5251    0.0000 H   0  0  0  0  0  0  0  0  0  0  0  0
    9.3267    0.5251    0.0000 H   0  0  0  0  0  0  0  0  0  0  0  0
    5.0656    0.5251    0.0000 H   0  0  0  0  0  0  0  0  0  0  0  0
    5.8626    0.5251    0.0000 H   0  0  0  0  0  0  0  0  0  0  0  0
   10.1928    1.9750    0.0000 H   0  0  0  0  0  0  0  0  0  0  0  0
    9.3957    1.9750    0.0000 H   0  0  0  0  0  0  0  0  0  0  0  0
    4.9966    1.9750    0.0000 H   0  0  0  0  0  0  0  0  0  0  0  0
    4.1996    1.9750    0.0000 H   0  0  0  0  0  0  0  0  0  0  0  0
    6.1181    0.0826    0.0000 H   0  0  0  0  0  0  0  0  0  0  0  0
    5.7196   -0.6077    0.0000 H   0  0  0  0  0  0  0  0  0  0  0  0
   11.1972    0.6900    0.0000 H   0  0  0  0  0  0  0  0  0  0  0  0
    3.3335    0.5251    0.0000 H   0  0  0  0  0  0  0  0  0  0  0  0
    4.1306    0.5251    0.0000 H   0  0  0  0  0  0  0  0  0  0  0  0
    5.7101   -1.5000    0.0000 H   0  0  0  0  0  0  0  0  0  0  0  0
    6.3301   -2.1200    0.0000 H   0  0  0  0  0  0  0  0  0  0  0  0
    6.9501   -1.5000    0.0000 H   0  0  0  0  0  0  0  0  0  0  0  0
   11.8363    0.9631    0.0000 H   0  0  0  0  0  0  0  0  0  0  0  0
   12.0632    1.8100    0.0000 H   0  0  0  0  0  0  0  0  0  0  0  0
   11.2163    2.0369    0.0000 H   0  0  0  0  0  0  0  0  0  0  0  0
   10.0403   -0.0000    0.0000 H   0  0  0  0  0  0  0  0  0  0  0  0
   10.6603   -0.6200    0.0000 H   0  0  0  0  0  0  0  0  0  0  0  0
   11.2803   -0.0000    0.0000 H   0  0  0  0  0  0  0  0  0  0  0  0
    3.2646    1.9750    0.0000 H   0  0  0  0  0  0  0  0  0  0  0  0
    2.4675    1.9750    0.0000 H   0  0  0  0  0  0  0  0  0  0  0  0
    1.6900    1.5369    0.0000 H   0  0  0  0  0  0  0  0  0  0  0  0
    1.4631    0.6900    0.0000 H   0  0  0  0  0  0  0  0  0  0  0  0
    2.3100    0.4631    0.0000 H   0  0  0  0  0  0  0  0  0  0  0  0
  1  2  1  0  0  0  0
  1  3  1  0  0  0  0
  1  4  1  0  0  0  0
  1 17  1  0  0  0  0
  2  5  1  0  0  0  0
  2 18  1  0  0  0  0
  2 19  1  0  0  0  0
  3  6  1  0  0  0  0
  3 20  1  0  0  0  0
  3 21  1  0  0  0  0
  4  9  1  0  0  0  0
  4 22  1  0  0  0  0
  4 23  1  0  0  0  0
  5  7  1  0  0  0  0
  5 24  1  0  0  0  0
  5 25  1  0  0  0  0
  6  8  1  0  0  0  0
  6 26  1  0  0  0  0
  6 27  1  0  0  0  0
  7 10  1  0  0  0  0
  7 28  1  0  0  0  0
  7 29  1  0  0  0  0
  8 11  1  0  0  0  0
  8 30  1  0  0  0  0
  8 31  1  0  0  0  0
  9 12  1  0  0  0  0
  9 32  1  0  0  0  0
  9 33  1  0  0  0  0
 10 13  1  0  0  0  0
 10 14  1  0  0  0  0
 10 34  1  0  0  0  0
 11 15  1  0  0  0  0
 11 35  1  0  0  0  0
 11 36  1  0  0  0  0
 12 37  1  0  0  0  0
 12 38  1  0  0  0  0
 12 39  1  0  0  0  0
 13 40  1  0  0  0  0
 13 41  1  0  0  0  0
 13 42  1  0  0  0  0
 14 43  1  0  0  0  0
 14 44  1  0  0  0  0
 14 45  1  0  0  0  0
 15 16  1  0  0  0  0
 15 46  1  0  0  0  0
 15 47  1  0  0  0  0
 16 48  1  0  0  0  0
 16 49  1  0  0  0  0
 16 50  1  0  0  0  0
M  END
> <PUBCHEM_COMPOUND_CID>
545626

> <PUBCHEM_COMPOUND_CANONICALIZED>
1

> <PUBCHEM_CACTVS_COMPLEXITY>
126

> <PUBCHEM_CACTVS_HBOND_ACCEPTOR>
0

> <PUBCHEM_CACTVS_HBOND_DONOR>
0

> <PUBCHEM_CACTVS_ROTATABLE_BOND>
11

> <PUBCHEM_CACTVS_SUBSKEYS>
AAADcfB4AAAAAAAAAAAAAAAAAAAAAAAAAAAAAAAAAAAAAAAAAAAAGAAAAAAADQCAAAACAAAAAAAAAAAAAAAAAAAAAAAAAAAAAAAAAAIAAAAAAAAAAAAAAAEAgMAOAAAAAAAAAAAAAAAAAAAAAAAAAAAAAA==

> <PUBCHEM_IUPAC_OPENEYE_NAME>
2-methyl-6-propyl-dodecane

> <PUBCHEM_IUPAC_CAS_NAME>
2-methyl-6-propyldodecane

> <PUBCHEM_IUPAC_NAME_MARKUP>
2-methyl-6-propyldodecane

> <PUBCHEM_IUPAC_NAME>
2-methyl-6-propyldodecane

> <PUBCHEM_IUPAC_SYSTEMATIC_NAME>
2-methyl-6-propyl-dodecane

> <PUBCHEM_IUPAC_TRADITIONAL_NAME>
2-methyl-6-propyl-dodecane

> <PUBCHEM_IUPAC_INCHI>
InChI=1S/C16H34/c1-5-7-8-9-13-16(11-6-2)14-10-12-15(3)4/h15-16H,5-14H2,1-4H3

> <PUBCHEM_IUPAC_INCHIKEY>
IRPVTCCKIFKMEU-UHFFFAOYSA-N

> <PUBCHEM_XLOGP3_AA>
8.3

> <PUBCHEM_EXACT_MASS>
226.266051085

> <PUBCHEM_MOLECULAR_FORMULA>
C16H34

> <PUBCHEM_MOLECULAR_WEIGHT>
226.44

> <PUBCHEM_SMILES>
CCCCCCC(CCC)CCCC(C)C

> <PUBCHEM_CONNECTIVITY_SMILES>
CCCCCCC(CCC)CCCC(C)C

> <PUBCHEM_CACTVS_TPSA>
0

> <PUBCHEM_MONOISOTOPIC_WEIGHT>
226.266051085

> <PUBCHEM_TOTAL_CHARGE>
0

> <PUBCHEM_HEAVY_ATOM_COUNT>
16

> <PUBCHEM_ATOM_DEF_STEREO_COUNT>
0

> <PUBCHEM_ATOM_UDEF_STEREO_COUNT>
1

> <PUBCHEM_BOND_DEF_STEREO_COUNT>
0

> <PUBCHEM_BOND_UDEF_STEREO_COUNT>
0

> <PUBCHEM_ISOTOPIC_ATOM_COUNT>
0

> <PUBCHEM_COMPONENT_COUNT>
1

> <PUBCHEM_CACTVS_TAUTO_COUNT>
-1

> <PUBCHEM_COORDINATE_TYPE>
1
5
255

> <PUBCHEM_BONDANNOTATIONS>
1  4  3

$$$$
