545784
  -OEChem-05122609222D

 31 31  0     1  0  0  0  0  0999 V2000
    4.9190   -0.6697    0.0000 O   0  0  0  0  0  0  0  0  0  0  0  0
    5.4190    0.8691    0.0000 O   0  0  0  0  0  0  0  0  0  0  0  0
    3.8313    1.6781    0.0000 O   0  0  0  0  0  0  0  0  0  0  0  0
    6.6791   -0.3910    0.0000 C   0  0  0  0  0  0  0  0  0  0  0  0
    5.7281   -0.0819    0.0000 C   0  0  3  0  0  0  0  0  0  0  0  0
    4.1100   -0.0819    0.0000 C   0  0  3  0  0  0  0  0  0  0  0  0
    7.6302   -0.7000    0.0000 C   0  0  0  0  0  0  0  0  0  0  0  0
    6.3701   -1.3420    0.0000 C   0  0  0  0  0  0  0  0  0  0  0  0
    6.9881    0.5601    0.0000 C   0  0  0  0  0  0  0  0  0  0  0  0
    3.1590   -0.3910    0.0000 C   0  0  0  0  0  0  0  0  0  0  0  0
    4.4190    0.8691    0.0000 C   0  0  0  0  0  0  0  0  0  0  0  0
    2.9511   -1.3691    0.0000 C   0  0  0  0  0  0  0  0  0  0  0  0
    2.0000   -1.6781    0.0000 C   0  0  0  0  0  0  0  0  0  0  0  0
    6.1665    0.3565    0.0000 H   0  0  0  0  0  0  0  0  0  0  0  0
    4.0130   -0.6943    0.0000 H   0  0  0  0  0  0  0  0  0  0  0  0
    7.4386   -1.2896    0.0000 H   0  0  0  0  0  0  0  0  0  0  0  0
    8.2198   -0.8916    0.0000 H   0  0  0  0  0  0  0  0  0  0  0  0
    7.8218   -0.1103    0.0000 H   0  0  0  0  0  0  0  0  0  0  0  0
    5.7804   -1.1504    0.0000 H   0  0  0  0  0  0  0  0  0  0  0  0
    6.1785   -1.9317    0.0000 H   0  0  0  0  0  0  0  0  0  0  0  0
    6.9598   -1.5336    0.0000 H   0  0  0  0  0  0  0  0  0  0  0  0
    7.5778    0.3685    0.0000 H   0  0  0  0  0  0  0  0  0  0  0  0
    7.1797    1.1498    0.0000 H   0  0  0  0  0  0  0  0  0  0  0  0
    6.3985    0.7517    0.0000 H   0  0  0  0  0  0  0  0  0  0  0  0
    3.0727    0.2230    0.0000 H   0  0  0  0  0  0  0  0  0  0  0  0
    2.5394   -0.3693    0.0000 H   0  0  0  0  0  0  0  0  0  0  0  0
    3.0373   -1.9831    0.0000 H   0  0  0  0  0  0  0  0  0  0  0  0
    3.5707   -1.3908    0.0000 H   0  0  0  0  0  0  0  0  0  0  0  0
    1.8084   -1.0885    0.0000 H   0  0  0  0  0  0  0  0  0  0  0  0
    1.4103   -1.8697    0.0000 H   0  0  0  0  0  0  0  0  0  0  0  0
    2.1916   -2.2678    0.0000 H   0  0  0  0  0  0  0  0  0  0  0  0
  1  5  1  0  0  0  0
  1  6  1  0  0  0  0
  2  5  1  0  0  0  0
  2 11  1  0  0  0  0
  3 11  2  0  0  0  0
  4  5  1  0  0  0  0
  4  7  1  0  0  0  0
  4  8  1  0  0  0  0
  4  9  1  0  0  0  0
  5 14  1  0  0  0  0
  6 10  1  0  0  0  0
  6 11  1  0  0  0  0
  6 15  1  0  0  0  0
  7 16  1  0  0  0  0
  7 17  1  0  0  0  0
  7 18  1  0  0  0  0
  8 19  1  0  0  0  0
  8 20  1  0  0  0  0
  8 21  1  0  0  0  0
  9 22  1  0  0  0  0
  9 23  1  0  0  0  0
  9 24  1  0  0  0  0
 10 12  1  0  0  0  0
 10 25  1  0  0  0  0
 10 26  1  0  0  0  0
 12 13  1  0  0  0  0
 12 27  1  0  0  0  0
 12 28  1  0  0  0  0
 13 29  1  0  0  0  0
 13 30  1  0  0  0  0
 13 31  1  0  0  0  0
M  END
> <PUBCHEM_COMPOUND_CID>
545784

> <PUBCHEM_COMPOUND_CANONICALIZED>
1

> <PUBCHEM_CACTVS_COMPLEXITY>
193

> <PUBCHEM_CACTVS_HBOND_ACCEPTOR>
3

> <PUBCHEM_CACTVS_HBOND_DONOR>
0

> <PUBCHEM_CACTVS_ROTATABLE_BOND>
3

> <PUBCHEM_CACTVS_SUBSKEYS>
AAADceBwMAAAAAAAAAAAAAAAAAAAASAAAAAAAAAAAAAAAAAAAAAAGgAAAAAADhSwgAMCCAAABAAIAACQCAIAAAAAAAAAAAFAAAARABIAAAQiAAAEAAAGAACIAAAAAAAAAAAAAAAAAAAAAAAAAAAAAAAAAA==

> <PUBCHEM_IUPAC_OPENEYE_NAME>
2-tert-butyl-5-propyl-1,3-dioxolan-4-one

> <PUBCHEM_IUPAC_CAS_NAME>
2-tert-butyl-5-propyl-1,3-dioxolan-4-one

> <PUBCHEM_IUPAC_NAME_MARKUP>
2-<I>tert</I>-butyl-5-propyl-1,3-dioxolan-4-one

> <PUBCHEM_IUPAC_NAME>
2-tert-butyl-5-propyl-1,3-dioxolan-4-one

> <PUBCHEM_IUPAC_SYSTEMATIC_NAME>
2-tert-butyl-5-propyl-1,3-dioxolan-4-one

> <PUBCHEM_IUPAC_TRADITIONAL_NAME>
2-tert-butyl-5-propyl-1,3-dioxolan-4-one

> <PUBCHEM_IUPAC_INCHI>
InChI=1S/C10H18O3/c1-5-6-7-8(11)13-9(12-7)10(2,3)4/h7,9H,5-6H2,1-4H3

> <PUBCHEM_IUPAC_INCHIKEY>
ILGODMRZDJWLOV-UHFFFAOYSA-N

> <PUBCHEM_XLOGP3_AA>
2.9

> <PUBCHEM_EXACT_MASS>
186.125594432

> <PUBCHEM_MOLECULAR_FORMULA>
C10H18O3

> <PUBCHEM_MOLECULAR_WEIGHT>
186.25

> <PUBCHEM_SMILES>
CCCC1C(=O)OC(O1)C(C)(C)C

> <PUBCHEM_CONNECTIVITY_SMILES>
CCCC1C(=O)OC(O1)C(C)(C)C

> <PUBCHEM_CACTVS_TPSA>
35.5

> <PUBCHEM_MONOISOTOPIC_WEIGHT>
186.125594432

> <PUBCHEM_TOTAL_CHARGE>
0

> <PUBCHEM_HEAVY_ATOM_COUNT>
13

> <PUBCHEM_ATOM_DEF_STEREO_COUNT>
0

> <PUBCHEM_ATOM_UDEF_STEREO_COUNT>
2

> <PUBCHEM_BOND_DEF_STEREO_COUNT>
0

> <PUBCHEM_BOND_UDEF_STEREO_COUNT>
0

> <PUBCHEM_ISOTOPIC_ATOM_COUNT>
0

> <PUBCHEM_COMPONENT_COUNT>
1

> <PUBCHEM_CACTVS_TAUTO_COUNT>
-1

> <PUBCHEM_COORDINATE_TYPE>
1
5
255

> <PUBCHEM_BONDANNOTATIONS>
5  4  3
6  10  3

$$$$
