545928
  -OEChem-05122608112D

 51 50  0     1  0  0  0  0  0999 V2000
    2.5369   -0.4330    0.0000 O   0  0  0  0  0  0  0  0  0  0  0  0
    4.2690   -0.4330    0.0000 C   0  0  3  0  0  0  0  0  0  0  0  0
    5.1350    0.0670    0.0000 C   0  0  0  0  0  0  0  0  0  0  0  0
    6.0010   -0.4330    0.0000 C   0  0  0  0  0  0  0  0  0  0  0  0
    3.7690    0.4330    0.0000 C   0  0  0  0  0  0  0  0  0  0  0  0
    6.8671    0.0670    0.0000 C   0  0  0  0  0  0  0  0  0  0  0  0
    3.4030   -0.9330    0.0000 C   0  0  0  0  0  0  0  0  0  0  0  0
    4.7690   -1.2990    0.0000 C   0  0  0  0  0  0  0  0  0  0  0  0
    7.7331   -0.4330    0.0000 C   0  0  0  0  0  0  0  0  0  0  0  0
    8.5991    0.0670    0.0000 C   0  0  0  0  0  0  0  0  0  0  0  0
    9.4651   -0.4330    0.0000 C   0  0  0  0  0  0  0  0  0  0  0  0
    4.2690    1.2990    0.0000 C   0  0  0  0  0  0  0  0  0  0  0  0
   10.3312    0.0670    0.0000 C   0  0  0  0  0  0  0  0  0  0  0  0
   11.1972   -0.4330    0.0000 C   0  0  0  0  0  0  0  0  0  0  0  0
   12.0632    0.0670    0.0000 C   0  0  0  0  0  0  0  0  0  0  0  0
   12.9292   -0.4330    0.0000 C   0  0  0  0  0  0  0  0  0  0  0  0
   13.7953    0.0670    0.0000 C   0  0  0  0  0  0  0  0  0  0  0  0
    5.5335    0.5419    0.0000 H   0  0  0  0  0  0  0  0  0  0  0  0
    4.7365    0.5419    0.0000 H   0  0  0  0  0  0  0  0  0  0  0  0
    5.6025   -0.9080    0.0000 H   0  0  0  0  0  0  0  0  0  0  0  0
    6.3996   -0.9080    0.0000 H   0  0  0  0  0  0  0  0  0  0  0  0
    3.2940    0.8315    0.0000 H   0  0  0  0  0  0  0  0  0  0  0  0
    3.2940    0.0345    0.0000 H   0  0  0  0  0  0  0  0  0  0  0  0
    7.2656    0.5419    0.0000 H   0  0  0  0  0  0  0  0  0  0  0  0
    6.4685    0.5419    0.0000 H   0  0  0  0  0  0  0  0  0  0  0  0
    3.0044   -1.4080    0.0000 H   0  0  0  0  0  0  0  0  0  0  0  0
    3.8015   -1.4080    0.0000 H   0  0  0  0  0  0  0  0  0  0  0  0
    4.2320   -1.6090    0.0000 H   0  0  0  0  0  0  0  0  0  0  0  0
    5.0790   -1.8360    0.0000 H   0  0  0  0  0  0  0  0  0  0  0  0
    5.3059   -0.9890    0.0000 H   0  0  0  0  0  0  0  0  0  0  0  0
    7.3346   -0.9080    0.0000 H   0  0  0  0  0  0  0  0  0  0  0  0
    8.1316   -0.9080    0.0000 H   0  0  0  0  0  0  0  0  0  0  0  0
    8.9976    0.5419    0.0000 H   0  0  0  0  0  0  0  0  0  0  0  0
    8.2006    0.5419    0.0000 H   0  0  0  0  0  0  0  0  0  0  0  0
    9.0666   -0.9080    0.0000 H   0  0  0  0  0  0  0  0  0  0  0  0
    9.8637   -0.9080    0.0000 H   0  0  0  0  0  0  0  0  0  0  0  0
    4.8059    0.9890    0.0000 H   0  0  0  0  0  0  0  0  0  0  0  0
    4.5790    1.8360    0.0000 H   0  0  0  0  0  0  0  0  0  0  0  0
    3.7320    1.6090    0.0000 H   0  0  0  0  0  0  0  0  0  0  0  0
   10.7297    0.5419    0.0000 H   0  0  0  0  0  0  0  0  0  0  0  0
    9.9326    0.5419    0.0000 H   0  0  0  0  0  0  0  0  0  0  0  0
   10.7987   -0.9080    0.0000 H   0  0  0  0  0  0  0  0  0  0  0  0
   11.5957   -0.9080    0.0000 H   0  0  0  0  0  0  0  0  0  0  0  0
   12.4617    0.5419    0.0000 H   0  0  0  0  0  0  0  0  0  0  0  0
   11.6647    0.5419    0.0000 H   0  0  0  0  0  0  0  0  0  0  0  0
    2.0000   -0.7430    0.0000 H   0  0  0  0  0  0  0  0  0  0  0  0
   12.5307   -0.9080    0.0000 H   0  0  0  0  0  0  0  0  0  0  0  0
   13.3278   -0.9080    0.0000 H   0  0  0  0  0  0  0  0  0  0  0  0
   14.1053   -0.4699    0.0000 H   0  0  0  0  0  0  0  0  0  0  0  0
   14.3322    0.3770    0.0000 H   0  0  0  0  0  0  0  0  0  0  0  0
   13.4853    0.6039    0.0000 H   0  0  0  0  0  0  0  0  0  0  0  0
  1  7  1  0  0  0  0
  1 46  1  0  0  0  0
  2  3  1  0  0  0  0
  2  5  1  0  0  0  0
  2  7  1  0  0  0  0
  2  8  1  0  0  0  0
  3  4  1  0  0  0  0
  3 18  1  0  0  0  0
  3 19  1  0  0  0  0
  4  6  1  0  0  0  0
  4 20  1  0  0  0  0
  4 21  1  0  0  0  0
  5 12  1  0  0  0  0
  5 22  1  0  0  0  0
  5 23  1  0  0  0  0
  6  9  1  0  0  0  0
  6 24  1  0  0  0  0
  6 25  1  0  0  0  0
  7 26  1  0  0  0  0
  7 27  1  0  0  0  0
  8 28  1  0  0  0  0
  8 29  1  0  0  0  0
  8 30  1  0  0  0  0
  9 10  1  0  0  0  0
  9 31  1  0  0  0  0
  9 32  1  0  0  0  0
 10 11  1  0  0  0  0
 10 33  1  0  0  0  0
 10 34  1  0  0  0  0
 11 13  1  0  0  0  0
 11 35  1  0  0  0  0
 11 36  1  0  0  0  0
 12 37  1  0  0  0  0
 12 38  1  0  0  0  0
 12 39  1  0  0  0  0
 13 14  1  0  0  0  0
 13 40  1  0  0  0  0
 13 41  1  0  0  0  0
 14 15  1  0  0  0  0
 14 42  1  0  0  0  0
 14 43  1  0  0  0  0
 15 16  1  0  0  0  0
 15 44  1  0  0  0  0
 15 45  1  0  0  0  0
 16 17  1  0  0  0  0
 16 47  1  0  0  0  0
 16 48  1  0  0  0  0
 17 49  1  0  0  0  0
 17 50  1  0  0  0  0
 17 51  1  0  0  0  0
M  END
> <PUBCHEM_COMPOUND_CID>
545928

> <PUBCHEM_COMPOUND_CANONICALIZED>
1

> <PUBCHEM_CACTVS_COMPLEXITY>
156

> <PUBCHEM_CACTVS_HBOND_ACCEPTOR>
1

> <PUBCHEM_CACTVS_HBOND_DONOR>
1

> <PUBCHEM_CACTVS_ROTATABLE_BOND>
12

> <PUBCHEM_CACTVS_SUBSKEYS>
AAADcfB4IAAAAAAAAAAAAAAAAAAAAAAAAAAAAAAAAAAAAAAAAAAAGgAACAAADgCggAICAAAAAgAAAAAAAAAAAAAAAAAAAAAAAAAAEAIAAAAAQAAEAAAAAAGAwOAPAAAAAAAAAAAAAAAAAAAAAAAAAAAAAA==

> <PUBCHEM_IUPAC_OPENEYE_NAME>
2-ethyl-2-methyl-tridecan-1-ol

> <PUBCHEM_IUPAC_CAS_NAME>
2-ethyl-2-methyl-1-tridecanol

> <PUBCHEM_IUPAC_NAME_MARKUP>
2-ethyl-2-methyltridecan-1-ol

> <PUBCHEM_IUPAC_NAME>
2-ethyl-2-methyltridecan-1-ol

> <PUBCHEM_IUPAC_SYSTEMATIC_NAME>
2-ethyl-2-methyl-tridecan-1-ol

> <PUBCHEM_IUPAC_TRADITIONAL_NAME>
2-ethyl-2-methyl-tridecan-1-ol

> <PUBCHEM_IUPAC_INCHI>
InChI=1S/C16H34O/c1-4-6-7-8-9-10-11-12-13-14-16(3,5-2)15-17/h17H,4-15H2,1-3H3

> <PUBCHEM_IUPAC_INCHIKEY>
RHGHBLSDPQFOTE-UHFFFAOYSA-N

> <PUBCHEM_XLOGP3_AA>
6.9

> <PUBCHEM_EXACT_MASS>
242.260965704

> <PUBCHEM_MOLECULAR_FORMULA>
C16H34O

> <PUBCHEM_MOLECULAR_WEIGHT>
242.44

> <PUBCHEM_SMILES>
CCCCCCCCCCCC(C)(CC)CO

> <PUBCHEM_CONNECTIVITY_SMILES>
CCCCCCCCCCCC(C)(CC)CO

> <PUBCHEM_CACTVS_TPSA>
20.2

> <PUBCHEM_MONOISOTOPIC_WEIGHT>
242.260965704

> <PUBCHEM_TOTAL_CHARGE>
0

> <PUBCHEM_HEAVY_ATOM_COUNT>
17

> <PUBCHEM_ATOM_DEF_STEREO_COUNT>
0

> <PUBCHEM_ATOM_UDEF_STEREO_COUNT>
1

> <PUBCHEM_BOND_DEF_STEREO_COUNT>
0

> <PUBCHEM_BOND_UDEF_STEREO_COUNT>
0

> <PUBCHEM_ISOTOPIC_ATOM_COUNT>
0

> <PUBCHEM_COMPONENT_COUNT>
1

> <PUBCHEM_CACTVS_TAUTO_COUNT>
-1

> <PUBCHEM_COORDINATE_TYPE>
1
5
255

> <PUBCHEM_BONDANNOTATIONS>
2  8  3

$$$$
