546027
  -OEChem-05122609512D

 44 44  0     1  0  0  0  0  0999 V2000
    3.7321    0.3170    0.0000 C   0  0  3  0  0  0  0  0  0  0  0  0
    2.8660   -0.1830    0.0000 C   0  0  3  0  0  0  0  0  0  0  0  0
    2.8660   -1.1830    0.0000 C   0  0  3  0  0  0  0  0  0  0  0  0
    4.5981   -0.1830    0.0000 C   0  0  0  0  0  0  0  0  0  0  0  0
    4.5981   -1.1830    0.0000 C   0  0  3  0  0  0  0  0  0  0  0  0
    3.7321    1.3170    0.0000 C   0  0  0  0  0  0  0  0  0  0  0  0
    3.7321   -1.6830    0.0000 C   0  0  0  0  0  0  0  0  0  0  0  0
    4.5981    1.8170    0.0000 C   0  0  0  0  0  0  0  0  0  0  0  0
    2.0000    0.3170    0.0000 C   0  0  0  0  0  0  0  0  0  0  0  0
    2.0000   -1.6830    0.0000 C   0  0  0  0  0  0  0  0  0  0  0  0
    5.4641   -1.6830    0.0000 C   0  0  0  0  0  0  0  0  0  0  0  0
    5.4641    2.3170    0.0000 C   0  0  0  0  0  0  0  0  0  0  0  0
    4.0981    2.6830    0.0000 C   0  0  0  0  0  0  0  0  0  0  0  0
    5.0981    0.9510    0.0000 C   0  0  0  0  0  0  0  0  0  0  0  0
    2.0000   -2.6830    0.0000 C   0  0  0  0  0  0  0  0  0  0  0  0
    5.4641   -2.6830    0.0000 C   0  0  0  0  0  0  0  0  0  0  0  0
    4.2690    0.6270    0.0000 H   0  0  0  0  0  0  0  0  0  0  0  0
    2.8660    0.4370    0.0000 H   0  0  0  0  0  0  0  0  0  0  0  0
    2.8660   -1.8030    0.0000 H   0  0  0  0  0  0  0  0  0  0  0  0
    5.2087   -0.2907    0.0000 H   0  0  0  0  0  0  0  0  0  0  0  0
    4.8101    0.3996    0.0000 H   0  0  0  0  0  0  0  0  0  0  0  0
    4.5981   -1.8030    0.0000 H   0  0  0  0  0  0  0  0  0  0  0  0
    3.5200    1.8996    0.0000 H   0  0  0  0  0  0  0  0  0  0  0  0
    3.1215    1.2093    0.0000 H   0  0  0  0  0  0  0  0  0  0  0  0
    3.3335   -2.1580    0.0000 H   0  0  0  0  0  0  0  0  0  0  0  0
    4.1306   -2.1580    0.0000 H   0  0  0  0  0  0  0  0  0  0  0  0
    2.3100    0.8539    0.0000 H   0  0  0  0  0  0  0  0  0  0  0  0
    1.4631    0.6270    0.0000 H   0  0  0  0  0  0  0  0  0  0  0  0
    1.6900   -0.2199    0.0000 H   0  0  0  0  0  0  0  0  0  0  0  0
    1.4631   -1.3730    0.0000 H   0  0  0  0  0  0  0  0  0  0  0  0
    6.0010   -1.3730    0.0000 H   0  0  0  0  0  0  0  0  0  0  0  0
    5.7741    1.7801    0.0000 H   0  0  0  0  0  0  0  0  0  0  0  0
    6.0010    2.6270    0.0000 H   0  0  0  0  0  0  0  0  0  0  0  0
    5.1541    2.8539    0.0000 H   0  0  0  0  0  0  0  0  0  0  0  0
    4.6350    2.9930    0.0000 H   0  0  0  0  0  0  0  0  0  0  0  0
    3.7881    3.2200    0.0000 H   0  0  0  0  0  0  0  0  0  0  0  0
    3.5611    2.3730    0.0000 H   0  0  0  0  0  0  0  0  0  0  0  0
    4.5611    0.6410    0.0000 H   0  0  0  0  0  0  0  0  0  0  0  0
    5.4081    0.4140    0.0000 H   0  0  0  0  0  0  0  0  0  0  0  0
    5.6350    1.2610    0.0000 H   0  0  0  0  0  0  0  0  0  0  0  0
    1.4631   -2.9930    0.0000 H   0  0  0  0  0  0  0  0  0  0  0  0
    2.5369   -2.9930    0.0000 H   0  0  0  0  0  0  0  0  0  0  0  0
    4.9272   -2.9930    0.0000 H   0  0  0  0  0  0  0  0  0  0  0  0
    6.0010   -2.9930    0.0000 H   0  0  0  0  0  0  0  0  0  0  0  0
  1  2  1  0  0  0  0
  1  4  1  0  0  0  0
  1  6  1  0  0  0  0
  1 17  1  0  0  0  0
  2  3  1  0  0  0  0
  2  9  1  0  0  0  0
  2 18  1  0  0  0  0
  3  7  1  0  0  0  0
  3 10  1  0  0  0  0
  3 19  1  0  0  0  0
  4  5  1  0  0  0  0
  4 20  1  0  0  0  0
  4 21  1  0  0  0  0
  5  7  1  0  0  0  0
  5 11  1  0  0  0  0
  5 22  1  0  0  0  0
  6  8  1  0  0  0  0
  6 23  1  0  0  0  0
  6 24  1  0  0  0  0
  7 25  1  0  0  0  0
  7 26  1  0  0  0  0
  8 12  1  0  0  0  0
  8 13  1  0  0  0  0
  8 14  1  0  0  0  0
  9 27  1  0  0  0  0
  9 28  1  0  0  0  0
  9 29  1  0  0  0  0
 10 15  2  0  0  0  0
 10 30  1  0  0  0  0
 11 16  2  0  0  0  0
 11 31  1  0  0  0  0
 12 32  1  0  0  0  0
 12 33  1  0  0  0  0
 12 34  1  0  0  0  0
 13 35  1  0  0  0  0
 13 36  1  0  0  0  0
 13 37  1  0  0  0  0
 14 38  1  0  0  0  0
 14 39  1  0  0  0  0
 14 40  1  0  0  0  0
 15 41  1  0  0  0  0
 15 42  1  0  0  0  0
 16 43  1  0  0  0  0
 16 44  1  0  0  0  0
M  END
> <PUBCHEM_COMPOUND_CID>
546027

> <PUBCHEM_COMPOUND_CANONICALIZED>
1

> <PUBCHEM_CACTVS_COMPLEXITY>
243

> <PUBCHEM_CACTVS_HBOND_ACCEPTOR>
0

> <PUBCHEM_CACTVS_HBOND_DONOR>
0

> <PUBCHEM_CACTVS_ROTATABLE_BOND>
4

> <PUBCHEM_CACTVS_SUBSKEYS>
AAADceB4AAAAAAAAAAAAAAAAAAAAAAAAAAAwAAAAAAAAAAAAAAAAGAAAAAAADwCAAAACAAAAAACAACBCAAAAAAAgAAAIAAAAAAgAAAIAAQAAAAAAgAAAAAEAgMAPgAAAAAAAAACAAAQAACAAAAAAAAAAAA==

> <PUBCHEM_IUPAC_OPENEYE_NAME>
1-(2,2-dimethylpropyl)-2-methyl-3,5-divinyl-cyclohexane

> <PUBCHEM_IUPAC_CAS_NAME>
1-(2,2-dimethylpropyl)-3,5-bis(ethenyl)-2-methylcyclohexane

> <PUBCHEM_IUPAC_NAME_MARKUP>
1-(2,2-dimethylpropyl)-3,5-bis(ethenyl)-2-methylcyclohexane

> <PUBCHEM_IUPAC_NAME>
1-(2,2-dimethylpropyl)-3,5-bis(ethenyl)-2-methylcyclohexane

> <PUBCHEM_IUPAC_SYSTEMATIC_NAME>
1-(2,2-dimethylpropyl)-3,5-bis(ethenyl)-2-methyl-cyclohexane

> <PUBCHEM_IUPAC_TRADITIONAL_NAME>
2-methyl-1-neopentyl-3,5-divinyl-cyclohexane

> <PUBCHEM_IUPAC_INCHI>
InChI=1S/C16H28/c1-7-13-9-14(8-2)12(3)15(10-13)11-16(4,5)6/h7-8,12-15H,1-2,9-11H2,3-6H3

> <PUBCHEM_IUPAC_INCHIKEY>
JZRTWPJJQZRSKY-UHFFFAOYSA-N

> <PUBCHEM_XLOGP3_AA>
6.2

> <PUBCHEM_EXACT_MASS>
220.219100893

> <PUBCHEM_MOLECULAR_FORMULA>
C16H28

> <PUBCHEM_MOLECULAR_WEIGHT>
220.39

> <PUBCHEM_SMILES>
CC1C(CC(CC1C=C)C=C)CC(C)(C)C

> <PUBCHEM_CONNECTIVITY_SMILES>
CC1C(CC(CC1C=C)C=C)CC(C)(C)C

> <PUBCHEM_CACTVS_TPSA>
0

> <PUBCHEM_MONOISOTOPIC_WEIGHT>
220.219100893

> <PUBCHEM_TOTAL_CHARGE>
0

> <PUBCHEM_HEAVY_ATOM_COUNT>
16

> <PUBCHEM_ATOM_DEF_STEREO_COUNT>
0

> <PUBCHEM_ATOM_UDEF_STEREO_COUNT>
4

> <PUBCHEM_BOND_DEF_STEREO_COUNT>
0

> <PUBCHEM_BOND_UDEF_STEREO_COUNT>
0

> <PUBCHEM_ISOTOPIC_ATOM_COUNT>
0

> <PUBCHEM_COMPONENT_COUNT>
1

> <PUBCHEM_CACTVS_TAUTO_COUNT>
-1

> <PUBCHEM_COORDINATE_TYPE>
1
5
255

> <PUBCHEM_BONDANNOTATIONS>
1  6  3
2  9  3
3  10  3
5  11  3

$$$$
