5471014
  -OEChem-05122608312D

 55 54  0     0  0  0  0  0  0999 V2000
    2.8660    1.9400    0.0000 O   0  0  0  0  0  0  0  0  0  0  0  0
    3.7320    0.4400    0.0000 O   0  0  0  0  0  0  0  0  0  0  0  0
    8.0622    1.9400    0.0000 C   0  0  0  0  0  0  0  0  0  0  0  0
    7.1962    1.4400    0.0000 C   0  0  0  0  0  0  0  0  0  0  0  0
    8.9282    1.4400    0.0000 C   0  0  0  0  0  0  0  0  0  0  0  0
    6.3301    1.9400    0.0000 C   0  0  0  0  0  0  0  0  0  0  0  0
    9.7942    1.9400    0.0000 C   0  0  0  0  0  0  0  0  0  0  0  0
    5.4641    1.4400    0.0000 C   0  0  0  0  0  0  0  0  0  0  0  0
   10.6603    1.4400    0.0000 C   0  0  0  0  0  0  0  0  0  0  0  0
    4.5981    1.9400    0.0000 C   0  0  0  0  0  0  0  0  0  0  0  0
   14.9904   -0.0600    0.0000 C   0  0  0  0  0  0  0  0  0  0  0  0
   14.9904   -1.0600    0.0000 C   0  0  0  0  0  0  0  0  0  0  0  0
   11.5263    1.9400    0.0000 C   0  0  0  0  0  0  0  0  0  0  0  0
   14.1244    0.4400    0.0000 C   0  0  0  0  0  0  0  0  0  0  0  0
   15.8564   -1.5600    0.0000 C   0  0  0  0  0  0  0  0  0  0  0  0
    3.7320    1.4400    0.0000 C   0  0  0  0  0  0  0  0  0  0  0  0
   12.3923    1.4400    0.0000 C   0  0  0  0  0  0  0  0  0  0  0  0
   14.1244    1.4400    0.0000 C   0  0  0  0  0  0  0  0  0  0  0  0
   13.2583    1.9400    0.0000 C   0  0  0  0  0  0  0  0  0  0  0  0
   15.8564   -2.5600    0.0000 C   0  0  0  0  0  0  0  0  0  0  0  0
    2.0000    1.4400    0.0000 C   0  0  0  0  0  0  0  0  0  0  0  0
    8.4607    2.4150    0.0000 H   0  0  0  0  0  0  0  0  0  0  0  0
    7.6636    2.4150    0.0000 H   0  0  0  0  0  0  0  0  0  0  0  0
    6.7976    0.9651    0.0000 H   0  0  0  0  0  0  0  0  0  0  0  0
    7.5947    0.9651    0.0000 H   0  0  0  0  0  0  0  0  0  0  0  0
    8.5297    0.9651    0.0000 H   0  0  0  0  0  0  0  0  0  0  0  0
    9.3267    0.9651    0.0000 H   0  0  0  0  0  0  0  0  0  0  0  0
    6.7287    2.4150    0.0000 H   0  0  0  0  0  0  0  0  0  0  0  0
    5.9316    2.4150    0.0000 H   0  0  0  0  0  0  0  0  0  0  0  0
   10.1928    2.4150    0.0000 H   0  0  0  0  0  0  0  0  0  0  0  0
    9.3957    2.4150    0.0000 H   0  0  0  0  0  0  0  0  0  0  0  0
    5.0656    0.9651    0.0000 H   0  0  0  0  0  0  0  0  0  0  0  0
    5.8626    0.9651    0.0000 H   0  0  0  0  0  0  0  0  0  0  0  0
   10.2617    0.9651    0.0000 H   0  0  0  0  0  0  0  0  0  0  0  0
   11.0588    0.9651    0.0000 H   0  0  0  0  0  0  0  0  0  0  0  0
    4.9966    2.4150    0.0000 H   0  0  0  0  0  0  0  0  0  0  0  0
    4.1996    2.4150    0.0000 H   0  0  0  0  0  0  0  0  0  0  0  0
   15.6010   -0.1677    0.0000 H   0  0  0  0  0  0  0  0  0  0  0  0
   15.2024    0.5226    0.0000 H   0  0  0  0  0  0  0  0  0  0  0  0
   14.3798   -0.9523    0.0000 H   0  0  0  0  0  0  0  0  0  0  0  0
   14.7783   -1.6426    0.0000 H   0  0  0  0  0  0  0  0  0  0  0  0
   11.5263    2.5600    0.0000 H   0  0  0  0  0  0  0  0  0  0  0  0
   13.5138    0.5477    0.0000 H   0  0  0  0  0  0  0  0  0  0  0  0
   13.9123   -0.1426    0.0000 H   0  0  0  0  0  0  0  0  0  0  0  0
   16.4670   -1.6677    0.0000 H   0  0  0  0  0  0  0  0  0  0  0  0
   16.0685   -0.9774    0.0000 H   0  0  0  0  0  0  0  0  0  0  0  0
   12.3923    0.8200    0.0000 H   0  0  0  0  0  0  0  0  0  0  0  0
   14.6613    1.7500    0.0000 H   0  0  0  0  0  0  0  0  0  0  0  0
   13.2583    2.5600    0.0000 H   0  0  0  0  0  0  0  0  0  0  0  0
   15.2364   -2.5600    0.0000 H   0  0  0  0  0  0  0  0  0  0  0  0
   15.8564   -3.1800    0.0000 H   0  0  0  0  0  0  0  0  0  0  0  0
   16.4764   -2.5600    0.0000 H   0  0  0  0  0  0  0  0  0  0  0  0
    1.6900    1.9769    0.0000 H   0  0  0  0  0  0  0  0  0  0  0  0
    1.4631    1.1300    0.0000 H   0  0  0  0  0  0  0  0  0  0  0  0
    2.3100    0.9031    0.0000 H   0  0  0  0  0  0  0  0  0  0  0  0
  1 16  1  0  0  0  0
  1 21  1  0  0  0  0
  2 16  2  0  0  0  0
  3  4  1  0  0  0  0
  3  5  1  0  0  0  0
  3 22  1  0  0  0  0
  3 23  1  0  0  0  0
  4  6  1  0  0  0  0
  4 24  1  0  0  0  0
  4 25  1  0  0  0  0
  5  7  1  0  0  0  0
  5 26  1  0  0  0  0
  5 27  1  0  0  0  0
  6  8  1  0  0  0  0
  6 28  1  0  0  0  0
  6 29  1  0  0  0  0
  7  9  1  0  0  0  0
  7 30  1  0  0  0  0
  7 31  1  0  0  0  0
  8 10  1  0  0  0  0
  8 32  1  0  0  0  0
  8 33  1  0  0  0  0
  9 13  1  0  0  0  0
  9 34  1  0  0  0  0
  9 35  1  0  0  0  0
 10 16  1  0  0  0  0
 10 36  1  0  0  0  0
 10 37  1  0  0  0  0
 11 12  1  0  0  0  0
 11 14  1  0  0  0  0
 11 38  1  0  0  0  0
 11 39  1  0  0  0  0
 12 15  1  0  0  0  0
 12 40  1  0  0  0  0
 12 41  1  0  0  0  0
 13 17  2  0  0  0  0
 13 42  1  0  0  0  0
 14 18  1  0  0  0  0
 14 43  1  0  0  0  0
 14 44  1  0  0  0  0
 15 20  1  0  0  0  0
 15 45  1  0  0  0  0
 15 46  1  0  0  0  0
 17 19  1  0  0  0  0
 17 47  1  0  0  0  0
 18 19  2  0  0  0  0
 18 48  1  0  0  0  0
 19 49  1  0  0  0  0
 20 50  1  0  0  0  0
 20 51  1  0  0  0  0
 20 52  1  0  0  0  0
 21 53  1  0  0  0  0
 21 54  1  0  0  0  0
 21 55  1  0  0  0  0
M  END
> <PUBCHEM_COMPOUND_CID>
5471014

> <PUBCHEM_COMPOUND_CANONICALIZED>
1

> <PUBCHEM_CACTVS_COMPLEXITY>
279

> <PUBCHEM_CACTVS_HBOND_ACCEPTOR>
2

> <PUBCHEM_CACTVS_HBOND_DONOR>
0

> <PUBCHEM_CACTVS_ROTATABLE_BOND>
15

> <PUBCHEM_CACTVS_SUBSKEYS>
AAADcfB4MAAAAAAAAAAAAAAAAAAAAAAAAAAAAAAAAAAAAAAAAAAAGgAAAAAACACAgAICCAAABACIACDSCAAAAAAgAAAICAEAAAgIABIAAQAAAAAEgAAIgAOIyKCAAAAAAAAAAAAAAAAAAAAAAAAAAAAAAA==

> <PUBCHEM_IUPAC_OPENEYE_NAME>
methyl (10E,12Z)-octadeca-10,12-dienoate

> <PUBCHEM_IUPAC_CAS_NAME>
(10E,12Z)-octadeca-10,12-dienoic acid methyl ester

> <PUBCHEM_IUPAC_NAME_MARKUP>
methyl (10<I>E</I>,12<I>Z</I>)-octadeca-10,12-dienoate

> <PUBCHEM_IUPAC_NAME>
methyl (10E,12Z)-octadeca-10,12-dienoate

> <PUBCHEM_IUPAC_SYSTEMATIC_NAME>
methyl (10E,12Z)-octadeca-10,12-dienoate

> <PUBCHEM_IUPAC_TRADITIONAL_NAME>
(10E,12Z)-octadeca-10,12-dienoic acid methyl ester

> <PUBCHEM_IUPAC_INCHI>
InChI=1S/C19H34O2/c1-3-4-5-6-7-8-9-10-11-12-13-14-15-16-17-18-19(20)21-2/h7-10H,3-6,11-18H2,1-2H3/b8-7-,10-9+

> <PUBCHEM_IUPAC_INCHIKEY>
KMXSXYSNZMSDFK-UQGDGPGGSA-N

> <PUBCHEM_XLOGP3_AA>
7.2

> <PUBCHEM_EXACT_MASS>
294.255880323

> <PUBCHEM_MOLECULAR_FORMULA>
C19H34O2

> <PUBCHEM_MOLECULAR_WEIGHT>
294.5

> <PUBCHEM_SMILES>
CCCCC/C=C\C=C\CCCCCCCCC(=O)OC

> <PUBCHEM_CONNECTIVITY_SMILES>
CCCCCC=CC=CCCCCCCCCC(=O)OC

> <PUBCHEM_CACTVS_TPSA>
26.3

> <PUBCHEM_MONOISOTOPIC_WEIGHT>
294.255880323

> <PUBCHEM_TOTAL_CHARGE>
0

> <PUBCHEM_HEAVY_ATOM_COUNT>
21

> <PUBCHEM_ATOM_DEF_STEREO_COUNT>
0

> <PUBCHEM_ATOM_UDEF_STEREO_COUNT>
0

> <PUBCHEM_BOND_DEF_STEREO_COUNT>
2

> <PUBCHEM_BOND_UDEF_STEREO_COUNT>
0

> <PUBCHEM_ISOTOPIC_ATOM_COUNT>
0

> <PUBCHEM_COMPONENT_COUNT>
1

> <PUBCHEM_CACTVS_TAUTO_COUNT>
-1

> <PUBCHEM_COORDINATE_TYPE>
1
5
255

$$$$
