547838
  -OEChem-05122609512D

 40 39  0     0  0  0  0  0  0999 V2000
    5.1350    0.0670    0.0000 O   0  0  0  0  0  0  0  0  0  0  0  0
    2.5369   -0.4330    0.0000 O   0  0  0  0  0  0  0  0  0  0  0  0
    9.4651    0.5670    0.0000 C   0  0  0  0  0  0  0  0  0  0  0  0
    8.5991    0.0670    0.0000 C   0  0  0  0  0  0  0  0  0  0  0  0
   10.3312    0.0670    0.0000 C   0  0  0  0  0  0  0  0  0  0  0  0
    7.7331    0.5670    0.0000 C   0  0  0  0  0  0  0  0  0  0  0  0
    6.8671    0.0670    0.0000 C   0  0  0  0  0  0  0  0  0  0  0  0
    6.0010    0.5670    0.0000 C   0  0  0  0  0  0  0  0  0  0  0  0
    3.4030    0.0670    0.0000 C   0  0  0  0  0  0  0  0  0  0  0  0
    4.2690    0.5670    0.0000 C   0  0  0  0  0  0  0  0  0  0  0  0
   11.1972    0.5670    0.0000 C   0  0  0  0  0  0  0  0  0  0  0  0
   10.3312   -0.9330    0.0000 C   0  0  0  0  0  0  0  0  0  0  0  0
    2.9030    0.9330    0.0000 C   0  0  0  0  0  0  0  0  0  0  0  0
    3.9030   -0.7990    0.0000 C   0  0  0  0  0  0  0  0  0  0  0  0
    8.2006   -0.4080    0.0000 H   0  0  0  0  0  0  0  0  0  0  0  0
    8.9976   -0.4080    0.0000 H   0  0  0  0  0  0  0  0  0  0  0  0
    9.8637    1.0419    0.0000 H   0  0  0  0  0  0  0  0  0  0  0  0
    9.0666    1.0419    0.0000 H   0  0  0  0  0  0  0  0  0  0  0  0
    9.7942   -0.2430    0.0000 H   0  0  0  0  0  0  0  0  0  0  0  0
    8.1316    1.0419    0.0000 H   0  0  0  0  0  0  0  0  0  0  0  0
    7.3346    1.0419    0.0000 H   0  0  0  0  0  0  0  0  0  0  0  0
    6.4685   -0.4080    0.0000 H   0  0  0  0  0  0  0  0  0  0  0  0
    7.2656   -0.4080    0.0000 H   0  0  0  0  0  0  0  0  0  0  0  0
    6.3996    1.0419    0.0000 H   0  0  0  0  0  0  0  0  0  0  0  0
    5.6025    1.0419    0.0000 H   0  0  0  0  0  0  0  0  0  0  0  0
    4.6675    1.0419    0.0000 H   0  0  0  0  0  0  0  0  0  0  0  0
    3.8705    1.0419    0.0000 H   0  0  0  0  0  0  0  0  0  0  0  0
   11.5072    0.0301    0.0000 H   0  0  0  0  0  0  0  0  0  0  0  0
   11.7341    0.8770    0.0000 H   0  0  0  0  0  0  0  0  0  0  0  0
   10.8872    1.1039    0.0000 H   0  0  0  0  0  0  0  0  0  0  0  0
    9.7112   -0.9330    0.0000 H   0  0  0  0  0  0  0  0  0  0  0  0
   10.3312   -1.5530    0.0000 H   0  0  0  0  0  0  0  0  0  0  0  0
   10.9512   -0.9330    0.0000 H   0  0  0  0  0  0  0  0  0  0  0  0
    3.4399    1.2430    0.0000 H   0  0  0  0  0  0  0  0  0  0  0  0
    2.5930    1.4700    0.0000 H   0  0  0  0  0  0  0  0  0  0  0  0
    2.3660    0.6230    0.0000 H   0  0  0  0  0  0  0  0  0  0  0  0
    3.3660   -1.1090    0.0000 H   0  0  0  0  0  0  0  0  0  0  0  0
    4.2130   -1.3360    0.0000 H   0  0  0  0  0  0  0  0  0  0  0  0
    4.4399   -0.4890    0.0000 H   0  0  0  0  0  0  0  0  0  0  0  0
    2.0000   -0.1230    0.0000 H   0  0  0  0  0  0  0  0  0  0  0  0
  1  8  1  0  0  0  0
  1 10  1  0  0  0  0
  2  9  1  0  0  0  0
  2 40  1  0  0  0  0
  3  4  1  0  0  0  0
  3  5  1  0  0  0  0
  3 17  1  0  0  0  0
  3 18  1  0  0  0  0
  4  6  1  0  0  0  0
  4 15  1  0  0  0  0
  4 16  1  0  0  0  0
  5 11  1  0  0  0  0
  5 12  1  0  0  0  0
  5 19  1  0  0  0  0
  6  7  1  0  0  0  0
  6 20  1  0  0  0  0
  6 21  1  0  0  0  0
  7  8  1  0  0  0  0
  7 22  1  0  0  0  0
  7 23  1  0  0  0  0
  8 24  1  0  0  0  0
  8 25  1  0  0  0  0
  9 10  1  0  0  0  0
  9 13  1  0  0  0  0
  9 14  1  0  0  0  0
 10 26  1  0  0  0  0
 10 27  1  0  0  0  0
 11 28  1  0  0  0  0
 11 29  1  0  0  0  0
 11 30  1  0  0  0  0
 12 31  1  0  0  0  0
 12 32  1  0  0  0  0
 12 33  1  0  0  0  0
 13 34  1  0  0  0  0
 13 35  1  0  0  0  0
 13 36  1  0  0  0  0
 14 37  1  0  0  0  0
 14 38  1  0  0  0  0
 14 39  1  0  0  0  0
M  END
> <PUBCHEM_COMPOUND_CID>
547838

> <PUBCHEM_COMPOUND_CANONICALIZED>
1

> <PUBCHEM_CACTVS_COMPLEXITY>
130

> <PUBCHEM_CACTVS_HBOND_ACCEPTOR>
2

> <PUBCHEM_CACTVS_HBOND_DONOR>
1

> <PUBCHEM_CACTVS_ROTATABLE_BOND>
8

> <PUBCHEM_CACTVS_SUBSKEYS>
AAADceBwMAAAAAAAAAAAAAAAAAAAAAAAAAAAAAAAAAAAAAAAAAAAGgAACAAADUSggAICAAAABgAAAAAAAAAAAAAAAAAAAAAAAAABAAIAAAACAAAEAAADAAGAwGAMAAAAAAAAAAAAAAAAAAAAAAAAAAAAAA==

> <PUBCHEM_IUPAC_OPENEYE_NAME>
2-methyl-1-(6-methylheptoxy)propan-2-ol

> <PUBCHEM_IUPAC_CAS_NAME>
2-methyl-1-(6-methylheptoxy)-2-propanol

> <PUBCHEM_IUPAC_NAME_MARKUP>
2-methyl-1-(6-methylheptoxy)propan-2-ol

> <PUBCHEM_IUPAC_NAME>
2-methyl-1-(6-methylheptoxy)propan-2-ol

> <PUBCHEM_IUPAC_SYSTEMATIC_NAME>
2-methyl-1-(6-methylheptoxy)propan-2-ol

> <PUBCHEM_IUPAC_TRADITIONAL_NAME>
2-methyl-1-(6-methylheptoxy)propan-2-ol

> <PUBCHEM_IUPAC_INCHI>
InChI=1S/C12H26O2/c1-11(2)8-6-5-7-9-14-10-12(3,4)13/h11,13H,5-10H2,1-4H3

> <PUBCHEM_IUPAC_INCHIKEY>
FCDIGZZSGXKMBB-UHFFFAOYSA-N

> <PUBCHEM_XLOGP3_AA>
3.1

> <PUBCHEM_EXACT_MASS>
202.193280068

> <PUBCHEM_MOLECULAR_FORMULA>
C12H26O2

> <PUBCHEM_MOLECULAR_WEIGHT>
202.33

> <PUBCHEM_SMILES>
CC(C)CCCCCOCC(C)(C)O

> <PUBCHEM_CONNECTIVITY_SMILES>
CC(C)CCCCCOCC(C)(C)O

> <PUBCHEM_CACTVS_TPSA>
29.5

> <PUBCHEM_MONOISOTOPIC_WEIGHT>
202.193280068

> <PUBCHEM_TOTAL_CHARGE>
0

> <PUBCHEM_HEAVY_ATOM_COUNT>
14

> <PUBCHEM_ATOM_DEF_STEREO_COUNT>
0

> <PUBCHEM_ATOM_UDEF_STEREO_COUNT>
0

> <PUBCHEM_BOND_DEF_STEREO_COUNT>
0

> <PUBCHEM_BOND_UDEF_STEREO_COUNT>
0

> <PUBCHEM_ISOTOPIC_ATOM_COUNT>
0

> <PUBCHEM_COMPONENT_COUNT>
1

> <PUBCHEM_CACTVS_TAUTO_COUNT>
-1

> <PUBCHEM_COORDINATE_TYPE>
1
5
255

$$$$
