549004
  -OEChem-05122608452D

 40 42  0     0  0  0  0  0  0999 V2000
    4.4124   -0.5331    0.0000 C   0  0  0  0  0  0  0  0  0  0  0  0
    3.4809   -0.1473    0.0000 C   0  0  0  0  0  0  0  0  0  0  0  0
    4.7944    0.4000    0.0000 C   0  0  0  0  0  0  0  0  0  0  0  0
    3.8706    0.7827    0.0000 C   0  0  0  0  0  0  0  0  0  0  0  0
    4.8661   -1.5457    0.0000 C   0  0  0  0  0  0  0  0  0  0  0  0
    2.4440   -0.5425    0.0000 C   0  0  0  0  0  0  0  0  0  0  0  0
    5.7183    0.7827    0.0000 C   0  0  0  0  0  0  0  0  0  0  0  0
    3.4879    1.7066    0.0000 C   0  0  0  0  0  0  0  0  0  0  0  0
    4.4610   -2.5788    0.0000 C   0  0  0  0  0  0  0  0  0  0  0  0
    2.0000   -1.5594    0.0000 C   0  0  0  0  0  0  0  0  0  0  0  0
    6.1010    1.7066    0.0000 C   0  0  0  0  0  0  0  0  0  0  0  0
    3.8706    2.6304    0.0000 C   0  0  0  0  0  0  0  0  0  0  0  0
    3.4400   -3.0131    0.0000 C   0  0  0  0  0  0  0  0  0  0  0  0
    2.4149   -2.5885    0.0000 C   0  0  0  0  0  0  0  0  0  0  0  0
    5.7183    2.6304    0.0000 C   0  0  0  0  0  0  0  0  0  0  0  0
    4.7944    3.0131    0.0000 C   0  0  0  0  0  0  0  0  0  0  0  0
    5.0323   -0.5230    0.0000 H   0  0  0  0  0  0  0  0  0  0  0  0
    3.0497    0.2982    0.0000 H   0  0  0  0  0  0  0  0  0  0  0  0
    5.2337   -0.0375    0.0000 H   0  0  0  0  0  0  0  0  0  0  0  0
    4.3090    1.2211    0.0000 H   0  0  0  0  0  0  0  0  0  0  0  0
    5.3662   -1.9122    0.0000 H   0  0  0  0  0  0  0  0  0  0  0  0
    5.3483   -1.1560    0.0000 H   0  0  0  0  0  0  0  0  0  0  0  0
    2.3787    0.0741    0.0000 H   0  0  0  0  0  0  0  0  0  0  0  0
    1.8313   -0.4479    0.0000 H   0  0  0  0  0  0  0  0  0  0  0  0
    5.7992    0.1680    0.0000 H   0  0  0  0  0  0  0  0  0  0  0  0
    6.3330    0.7017    0.0000 H   0  0  0  0  0  0  0  0  0  0  0  0
    2.9960    2.0840    0.0000 H   0  0  0  0  0  0  0  0  0  0  0  0
    2.9960    1.3291    0.0000 H   0  0  0  0  0  0  0  0  0  0  0  0
    4.5498   -3.1924    0.0000 H   0  0  0  0  0  0  0  0  0  0  0  0
    5.0769   -2.6499    0.0000 H   0  0  0  0  0  0  0  0  0  0  0  0
    1.5142   -1.1742    0.0000 H   0  0  0  0  0  0  0  0  0  0  0  0
    1.5034   -1.9305    0.0000 H   0  0  0  0  0  0  0  0  0  0  0  0
    6.5929    1.3291    0.0000 H   0  0  0  0  0  0  0  0  0  0  0  0
    6.5929    2.0840    0.0000 H   0  0  0  0  0  0  0  0  0  0  0  0
    3.7896    3.2451    0.0000 H   0  0  0  0  0  0  0  0  0  0  0  0
    3.2559    2.7114    0.0000 H   0  0  0  0  0  0  0  0  0  0  0  0
    3.4429   -3.6331    0.0000 H   0  0  0  0  0  0  0  0  0  0  0  0
    1.9744   -3.0248    0.0000 H   0  0  0  0  0  0  0  0  0  0  0  0
    6.1567    3.0688    0.0000 H   0  0  0  0  0  0  0  0  0  0  0  0
    4.7944    3.6331    0.0000 H   0  0  0  0  0  0  0  0  0  0  0  0
  1  2  1  0  0  0  0
  1  3  1  0  0  0  0
  1  5  1  0  0  0  0
  1 17  1  0  0  0  0
  2  4  1  0  0  0  0
  2  6  1  0  0  0  0
  2 18  1  0  0  0  0
  3  4  1  0  0  0  0
  3  7  1  0  0  0  0
  3 19  1  0  0  0  0
  4  8  1  0  0  0  0
  4 20  1  0  0  0  0
  5  9  1  0  0  0  0
  5 21  1  0  0  0  0
  5 22  1  0  0  0  0
  6 10  1  0  0  0  0
  6 23  1  0  0  0  0
  6 24  1  0  0  0  0
  7 11  1  0  0  0  0
  7 25  1  0  0  0  0
  7 26  1  0  0  0  0
  8 12  1  0  0  0  0
  8 27  1  0  0  0  0
  8 28  1  0  0  0  0
  9 13  1  0  0  0  0
  9 29  1  0  0  0  0
  9 30  1  0  0  0  0
 10 14  1  0  0  0  0
 10 31  1  0  0  0  0
 10 32  1  0  0  0  0
 11 15  1  0  0  0  0
 11 33  1  0  0  0  0
 11 34  1  0  0  0  0
 12 16  1  0  0  0  0
 12 35  1  0  0  0  0
 12 36  1  0  0  0  0
 13 14  2  3  0  0  0
 13 37  1  0  0  0  0
 14 38  1  0  0  0  0
 15 16  2  3  0  0  0
 15 39  1  0  0  0  0
 16 40  1  0  0  0  0
M  END
> <PUBCHEM_COMPOUND_CID>
549004

> <PUBCHEM_COMPOUND_CANONICALIZED>
1

> <PUBCHEM_CACTVS_COMPLEXITY>
228

> <PUBCHEM_CACTVS_HBOND_ACCEPTOR>
0

> <PUBCHEM_CACTVS_HBOND_DONOR>
0

> <PUBCHEM_CACTVS_ROTATABLE_BOND>
0

> <PUBCHEM_CACTVS_SUBSKEYS>
AAADceB4AAAAAAAAAAAAAAAAAABgAAAAAAAAAAAAAAAQIACAAAAAGAAAAAAADQCAAAAAAAAAAACAACBCAAAAAAAgAAAICAAAAAgAAAIAAQAAAAAAgAAIAAMAgMAOgAAAAAAAAAAAAAAAAAAAAAAAAAAAAA==

> <PUBCHEM_IUPAC_OPENEYE_NAME>
tricyclo[8.6.0.02,9]hexadeca-5,13-diene

> <PUBCHEM_IUPAC_CAS_NAME>
tricyclo[8.6.0.02,9]hexadeca-5,13-diene

> <PUBCHEM_IUPAC_NAME_MARKUP>
tricyclo[8.6.0.0<SUP>2,9</SUP>]hexadeca-5,13-diene

> <PUBCHEM_IUPAC_NAME>
tricyclo[8.6.0.02,9]hexadeca-5,13-diene

> <PUBCHEM_IUPAC_SYSTEMATIC_NAME>
tricyclo[8.6.0.02,9]hexadeca-5,13-diene

> <PUBCHEM_IUPAC_TRADITIONAL_NAME>
tricyclo[8.6.0.02,9]hexadeca-5,13-diene

> <PUBCHEM_IUPAC_INCHI>
InChI=1S/C16H24/c1-2-6-10-14-13(9-5-1)15-11-7-3-4-8-12-16(14)15/h1-4,13-16H,5-12H2

> <PUBCHEM_IUPAC_INCHIKEY>
MOPYLUMINOGAKB-UHFFFAOYSA-N

> <PUBCHEM_XLOGP3_AA>
5.5

> <PUBCHEM_EXACT_MASS>
216.187800766

> <PUBCHEM_MOLECULAR_FORMULA>
C16H24

> <PUBCHEM_MOLECULAR_WEIGHT>
216.36

> <PUBCHEM_SMILES>
C1CC2C(CCC=C1)C3C2CCC=CCC3

> <PUBCHEM_CONNECTIVITY_SMILES>
C1CC2C(CCC=C1)C3C2CCC=CCC3

> <PUBCHEM_CACTVS_TPSA>
0

> <PUBCHEM_MONOISOTOPIC_WEIGHT>
216.187800766

> <PUBCHEM_TOTAL_CHARGE>
0

> <PUBCHEM_HEAVY_ATOM_COUNT>
16

> <PUBCHEM_ATOM_DEF_STEREO_COUNT>
0

> <PUBCHEM_ATOM_UDEF_STEREO_COUNT>
0

> <PUBCHEM_BOND_DEF_STEREO_COUNT>
0

> <PUBCHEM_BOND_UDEF_STEREO_COUNT>
2

> <PUBCHEM_ISOTOPIC_ATOM_COUNT>
0

> <PUBCHEM_COMPONENT_COUNT>
1

> <PUBCHEM_CACTVS_TAUTO_COUNT>
-1

> <PUBCHEM_COORDINATE_TYPE>
1
5
255

> <PUBCHEM_BONDANNOTATIONS>
13  14  1
15  16  1

$$$$
