549806
  -OEChem-05122608322D

 29 29  0     1  0  0  0  0  0999 V2000
    2.8660    1.5000    0.0000 O   0  0  0  0  0  0  0  0  0  0  0  0
    4.5981    0.5000    0.0000 C   0  0  0  0  0  0  0  0  0  0  0  0
    3.7321    0.0000    0.0000 C   0  0  3  0  0  0  0  0  0  0  0  0
    5.4641   -0.0000    0.0000 C   0  0  0  0  0  0  0  0  0  0  0  0
    3.7321   -1.0000    0.0000 C   0  0  0  0  0  0  0  0  0  0  0  0
    5.4641   -1.0000    0.0000 C   0  0  0  0  0  0  0  0  0  0  0  0
    4.5981   -1.5000    0.0000 C   0  0  0  0  0  0  0  0  0  0  0  0
    5.0981    1.3660    0.0000 C   0  0  0  0  0  0  0  0  0  0  0  0
    4.0981    1.3660    0.0000 C   0  0  0  0  0  0  0  0  0  0  0  0
    2.8660    0.5000    0.0000 C   0  0  0  0  0  0  0  0  0  0  0  0
    2.0000    0.0000    0.0000 C   0  0  0  0  0  0  0  0  0  0  0  0
    3.7321    0.6200    0.0000 H   0  0  0  0  0  0  0  0  0  0  0  0
    6.0747   -0.1077    0.0000 H   0  0  0  0  0  0  0  0  0  0  0  0
    5.6762    0.5826    0.0000 H   0  0  0  0  0  0  0  0  0  0  0  0
    3.1215   -0.8923    0.0000 H   0  0  0  0  0  0  0  0  0  0  0  0
    3.5200   -1.5826    0.0000 H   0  0  0  0  0  0  0  0  0  0  0  0
    5.6762   -1.5826    0.0000 H   0  0  0  0  0  0  0  0  0  0  0  0
    6.0747   -0.8923    0.0000 H   0  0  0  0  0  0  0  0  0  0  0  0
    4.1996   -1.9750    0.0000 H   0  0  0  0  0  0  0  0  0  0  0  0
    4.9966   -1.9750    0.0000 H   0  0  0  0  0  0  0  0  0  0  0  0
    5.6350    1.0560    0.0000 H   0  0  0  0  0  0  0  0  0  0  0  0
    5.4081    1.9030    0.0000 H   0  0  0  0  0  0  0  0  0  0  0  0
    4.5611    1.6760    0.0000 H   0  0  0  0  0  0  0  0  0  0  0  0
    4.6350    1.6760    0.0000 H   0  0  0  0  0  0  0  0  0  0  0  0
    3.7881    1.9030    0.0000 H   0  0  0  0  0  0  0  0  0  0  0  0
    3.5611    1.0560    0.0000 H   0  0  0  0  0  0  0  0  0  0  0  0
    1.6900    0.5369    0.0000 H   0  0  0  0  0  0  0  0  0  0  0  0
    1.4631   -0.3100    0.0000 H   0  0  0  0  0  0  0  0  0  0  0  0
    2.3100   -0.5369    0.0000 H   0  0  0  0  0  0  0  0  0  0  0  0
  1 10  2  0  0  0  0
  2  3  1  0  0  0  0
  2  4  1  0  0  0  0
  2  8  1  0  0  0  0
  2  9  1  0  0  0  0
  3  5  1  0  0  0  0
  3 10  1  0  0  0  0
  3 12  1  0  0  0  0
  4  6  1  0  0  0  0
  4 13  1  0  0  0  0
  4 14  1  0  0  0  0
  5  7  1  0  0  0  0
  5 15  1  0  0  0  0
  5 16  1  0  0  0  0
  6  7  1  0  0  0  0
  6 17  1  0  0  0  0
  6 18  1  0  0  0  0
  7 19  1  0  0  0  0
  7 20  1  0  0  0  0
  8 21  1  0  0  0  0
  8 22  1  0  0  0  0
  8 23  1  0  0  0  0
  9 24  1  0  0  0  0
  9 25  1  0  0  0  0
  9 26  1  0  0  0  0
 10 11  1  0  0  0  0
 11 27  1  0  0  0  0
 11 28  1  0  0  0  0
 11 29  1  0  0  0  0
M  END
> <PUBCHEM_COMPOUND_CID>
549806

> <PUBCHEM_COMPOUND_CANONICALIZED>
1

> <PUBCHEM_CACTVS_COMPLEXITY>
158

> <PUBCHEM_CACTVS_HBOND_ACCEPTOR>
1

> <PUBCHEM_CACTVS_HBOND_DONOR>
0

> <PUBCHEM_CACTVS_ROTATABLE_BOND>
1

> <PUBCHEM_CACTVS_SUBSKEYS>
AAADceBwIAAAAAAAAAAAAAAAAAAAAAAAAAAwAAAAAAAAAAAAAAAAGgAAAAAADwSAgAACAAAAAAAIAIAQAAAAAAAAAAAAAAEAAAAAABIAAAAAAAAAAAAAAAEIiMCPgAAAAAAAAAAAAAAAACAAAAAAAAAAAA==

> <PUBCHEM_IUPAC_OPENEYE_NAME>
1-(2,2-dimethylcyclohexyl)ethanone

> <PUBCHEM_IUPAC_CAS_NAME>
1-(2,2-dimethylcyclohexyl)ethanone

> <PUBCHEM_IUPAC_NAME_MARKUP>
1-(2,2-dimethylcyclohexyl)ethanone

> <PUBCHEM_IUPAC_NAME>
1-(2,2-dimethylcyclohexyl)ethanone

> <PUBCHEM_IUPAC_SYSTEMATIC_NAME>
1-(2,2-dimethylcyclohexyl)ethanone

> <PUBCHEM_IUPAC_TRADITIONAL_NAME>
1-(2,2-dimethylcyclohexyl)ethanone

> <PUBCHEM_IUPAC_INCHI>
InChI=1S/C10H18O/c1-8(11)9-6-4-5-7-10(9,2)3/h9H,4-7H2,1-3H3

> <PUBCHEM_IUPAC_INCHIKEY>
VXHOFFZAGUMFCK-UHFFFAOYSA-N

> <PUBCHEM_XLOGP3_AA>
2.9

> <PUBCHEM_EXACT_MASS>
154.135765193

> <PUBCHEM_MOLECULAR_FORMULA>
C10H18O

> <PUBCHEM_MOLECULAR_WEIGHT>
154.25

> <PUBCHEM_SMILES>
CC(=O)C1CCCCC1(C)C

> <PUBCHEM_CONNECTIVITY_SMILES>
CC(=O)C1CCCCC1(C)C

> <PUBCHEM_CACTVS_TPSA>
17.1

> <PUBCHEM_MONOISOTOPIC_WEIGHT>
154.135765193

> <PUBCHEM_TOTAL_CHARGE>
0

> <PUBCHEM_HEAVY_ATOM_COUNT>
11

> <PUBCHEM_ATOM_DEF_STEREO_COUNT>
0

> <PUBCHEM_ATOM_UDEF_STEREO_COUNT>
1

> <PUBCHEM_BOND_DEF_STEREO_COUNT>
0

> <PUBCHEM_BOND_UDEF_STEREO_COUNT>
0

> <PUBCHEM_ISOTOPIC_ATOM_COUNT>
0

> <PUBCHEM_COMPONENT_COUNT>
1

> <PUBCHEM_CACTVS_TAUTO_COUNT>
-1

> <PUBCHEM_COORDINATE_TYPE>
1
5
255

> <PUBCHEM_BONDANNOTATIONS>
3  10  3

$$$$
