551397
  -OEChem-05122608262D

 41 40  0     0  0  0  0  0  0999 V2000
    5.4641   -0.8660    0.0000 C   0  0  0  0  0  0  0  0  0  0  0  0
    6.3301   -0.3660    0.0000 C   0  0  0  0  0  0  0  0  0  0  0  0
    4.5981   -1.3660    0.0000 C   0  0  0  0  0  0  0  0  0  0  0  0
    4.9641    0.0000    0.0000 C   0  0  0  0  0  0  0  0  0  0  0  0
    5.9641   -1.7320    0.0000 C   0  0  0  0  0  0  0  0  0  0  0  0
    7.1962   -0.8660    0.0000 C   0  0  0  0  0  0  0  0  0  0  0  0
    3.7320   -0.8660    0.0000 C   0  0  0  0  0  0  0  0  0  0  0  0
    5.4641    0.8660    0.0000 C   0  0  0  0  0  0  0  0  0  0  0  0
    8.0622   -0.3660    0.0000 C   0  0  0  0  0  0  0  0  0  0  0  0
    2.8660   -1.3660    0.0000 C   0  0  0  0  0  0  0  0  0  0  0  0
    4.9641    1.7320    0.0000 C   0  0  0  0  0  0  0  0  0  0  0  0
    8.9282   -0.8660    0.0000 C   0  0  0  0  0  0  0  0  0  0  0  0
    2.0000   -0.8660    0.0000 C   0  0  0  0  0  0  0  0  0  0  0  0
    6.7287    0.1089    0.0000 H   0  0  0  0  0  0  0  0  0  0  0  0
    5.9316    0.1089    0.0000 H   0  0  0  0  0  0  0  0  0  0  0  0
    4.1996   -1.8410    0.0000 H   0  0  0  0  0  0  0  0  0  0  0  0
    4.9966   -1.8410    0.0000 H   0  0  0  0  0  0  0  0  0  0  0  0
    4.4892    0.3985    0.0000 H   0  0  0  0  0  0  0  0  0  0  0  0
    4.4892   -0.3985    0.0000 H   0  0  0  0  0  0  0  0  0  0  0  0
    5.4272   -2.0420    0.0000 H   0  0  0  0  0  0  0  0  0  0  0  0
    6.2741   -2.2690    0.0000 H   0  0  0  0  0  0  0  0  0  0  0  0
    6.5010   -1.4220    0.0000 H   0  0  0  0  0  0  0  0  0  0  0  0
    6.7976   -1.3410    0.0000 H   0  0  0  0  0  0  0  0  0  0  0  0
    7.5947   -1.3410    0.0000 H   0  0  0  0  0  0  0  0  0  0  0  0
    4.1306   -0.3911    0.0000 H   0  0  0  0  0  0  0  0  0  0  0  0
    3.3335   -0.3911    0.0000 H   0  0  0  0  0  0  0  0  0  0  0  0
    5.9390    0.4675    0.0000 H   0  0  0  0  0  0  0  0  0  0  0  0
    5.9390    1.2646    0.0000 H   0  0  0  0  0  0  0  0  0  0  0  0
    8.4607    0.1089    0.0000 H   0  0  0  0  0  0  0  0  0  0  0  0
    7.6636    0.1089    0.0000 H   0  0  0  0  0  0  0  0  0  0  0  0
    2.4675   -1.8410    0.0000 H   0  0  0  0  0  0  0  0  0  0  0  0
    3.2646   -1.8410    0.0000 H   0  0  0  0  0  0  0  0  0  0  0  0
    5.5010    2.0420    0.0000 H   0  0  0  0  0  0  0  0  0  0  0  0
    4.6541    2.2690    0.0000 H   0  0  0  0  0  0  0  0  0  0  0  0
    4.4272    1.4220    0.0000 H   0  0  0  0  0  0  0  0  0  0  0  0
    8.6182   -1.4030    0.0000 H   0  0  0  0  0  0  0  0  0  0  0  0
    9.4651   -1.1760    0.0000 H   0  0  0  0  0  0  0  0  0  0  0  0
    9.2382   -0.3291    0.0000 H   0  0  0  0  0  0  0  0  0  0  0  0
    2.3100   -0.3291    0.0000 H   0  0  0  0  0  0  0  0  0  0  0  0
    1.4631   -0.5560    0.0000 H   0  0  0  0  0  0  0  0  0  0  0  0
    1.6900   -1.4030    0.0000 H   0  0  0  0  0  0  0  0  0  0  0  0
  1  2  1  0  0  0  0
  1  3  1  0  0  0  0
  1  4  1  0  0  0  0
  1  5  1  0  0  0  0
  2  6  1  0  0  0  0
  2 14  1  0  0  0  0
  2 15  1  0  0  0  0
  3  7  1  0  0  0  0
  3 16  1  0  0  0  0
  3 17  1  0  0  0  0
  4  8  1  0  0  0  0
  4 18  1  0  0  0  0
  4 19  1  0  0  0  0
  5 20  1  0  0  0  0
  5 21  1  0  0  0  0
  5 22  1  0  0  0  0
  6  9  1  0  0  0  0
  6 23  1  0  0  0  0
  6 24  1  0  0  0  0
  7 10  1  0  0  0  0
  7 25  1  0  0  0  0
  7 26  1  0  0  0  0
  8 11  1  0  0  0  0
  8 27  1  0  0  0  0
  8 28  1  0  0  0  0
  9 12  1  0  0  0  0
  9 29  1  0  0  0  0
  9 30  1  0  0  0  0
 10 13  1  0  0  0  0
 10 31  1  0  0  0  0
 10 32  1  0  0  0  0
 11 33  1  0  0  0  0
 11 34  1  0  0  0  0
 11 35  1  0  0  0  0
 12 36  1  0  0  0  0
 12 37  1  0  0  0  0
 12 38  1  0  0  0  0
 13 39  1  0  0  0  0
 13 40  1  0  0  0  0
 13 41  1  0  0  0  0
M  END
> <PUBCHEM_COMPOUND_CID>
551397

> <PUBCHEM_COMPOUND_CANONICALIZED>
1

> <PUBCHEM_CACTVS_COMPLEXITY>
96.6

> <PUBCHEM_CACTVS_HBOND_ACCEPTOR>
0

> <PUBCHEM_CACTVS_HBOND_DONOR>
0

> <PUBCHEM_CACTVS_ROTATABLE_BOND>
8

> <PUBCHEM_CACTVS_SUBSKEYS>
AAADceBwAAAAAAAAAAAAAAAAAAAAAAAAAAAAAAAAAAAAAAAAAAAAGAAAAAAADgCAAAACAAAAAAAAAAAAAAAAAAAAAAAAAAAAAAAAAAIAAAAAAAAAAAAAAAEAgIAPAAAAAAAAAAAAAAAAAAAAAAAAAAAAAA==

> <PUBCHEM_IUPAC_OPENEYE_NAME>
5-methyl-5-propyl-nonane

> <PUBCHEM_IUPAC_CAS_NAME>
5-methyl-5-propylnonane

> <PUBCHEM_IUPAC_NAME_MARKUP>
5-methyl-5-propylnonane

> <PUBCHEM_IUPAC_NAME>
5-methyl-5-propylnonane

> <PUBCHEM_IUPAC_SYSTEMATIC_NAME>
5-methyl-5-propyl-nonane

> <PUBCHEM_IUPAC_TRADITIONAL_NAME>
5-methyl-5-propyl-nonane

> <PUBCHEM_IUPAC_INCHI>
InChI=1S/C13H28/c1-5-8-11-13(4,10-7-3)12-9-6-2/h5-12H2,1-4H3

> <PUBCHEM_IUPAC_INCHIKEY>
MIDLKLFOPVFCQK-UHFFFAOYSA-N

> <PUBCHEM_XLOGP3_AA>
6.8

> <PUBCHEM_EXACT_MASS>
184.219100893

> <PUBCHEM_MOLECULAR_FORMULA>
C13H28

> <PUBCHEM_MOLECULAR_WEIGHT>
184.36

> <PUBCHEM_SMILES>
CCCCC(C)(CCC)CCCC

> <PUBCHEM_CONNECTIVITY_SMILES>
CCCCC(C)(CCC)CCCC

> <PUBCHEM_CACTVS_TPSA>
0

> <PUBCHEM_MONOISOTOPIC_WEIGHT>
184.219100893

> <PUBCHEM_TOTAL_CHARGE>
0

> <PUBCHEM_HEAVY_ATOM_COUNT>
13

> <PUBCHEM_ATOM_DEF_STEREO_COUNT>
0

> <PUBCHEM_ATOM_UDEF_STEREO_COUNT>
0

> <PUBCHEM_BOND_DEF_STEREO_COUNT>
0

> <PUBCHEM_BOND_UDEF_STEREO_COUNT>
0

> <PUBCHEM_ISOTOPIC_ATOM_COUNT>
0

> <PUBCHEM_COMPONENT_COUNT>
1

> <PUBCHEM_CACTVS_TAUTO_COUNT>
-1

> <PUBCHEM_COORDINATE_TYPE>
1
5
255

$$$$
