556422
  -OEChem-05122609012D

 24 27  0     1  0  0  0  0  0999 V2000
    6.7554   -0.3501    0.0000 O   0  0  0  0  0  0  0  0  0  0  0  0
    2.0000    1.3428    0.0000 O   0  0  0  0  0  0  0  0  0  0  0  0
    3.1691   -0.9656    0.0000 C   0  0  0  0  0  0  0  0  0  0  0  0
    4.3901   -0.1000    0.0000 C   0  0  3  0  0  0  0  0  0  0  0  0
    5.7890   -0.6088    0.0000 C   0  0  3  0  0  0  0  0  0  0  0  0
    6.0478    0.3571    0.0000 C   0  0  3  0  0  0  0  0  0  0  0  0
    4.6489    0.8660    0.0000 C   0  0  3  0  0  0  0  0  0  0  0  0
    3.6990   -1.8137    0.0000 C   0  0  0  0  0  0  0  0  0  0  0  0
    2.6996   -1.8486    0.0000 C   0  0  0  0  0  0  0  0  0  0  0  0
    3.9123    1.8486    0.0000 C   0  0  0  0  0  0  0  0  0  0  0  0
    2.3400   -0.4064    0.0000 C   0  0  0  0  0  0  0  0  0  0  0  0
    2.6157    0.5548    0.0000 C   0  0  0  0  0  0  0  0  0  0  0  0
    4.8516    0.3141    0.0000 H   0  0  0  0  0  0  0  0  0  0  0  0
    5.7620   -1.2282    0.0000 H   0  0  0  0  0  0  0  0  0  0  0  0
    6.3808    0.8801    0.0000 H   0  0  0  0  0  0  0  0  0  0  0  0
    5.0183    1.3639    0.0000 H   0  0  0  0  0  0  0  0  0  0  0  0
    3.8279   -2.4201    0.0000 H   0  0  0  0  0  0  0  0  0  0  0  0
    4.2738   -1.5814    0.0000 H   0  0  0  0  0  0  0  0  0  0  0  0
    2.1099   -1.6570    0.0000 H   0  0  0  0  0  0  0  0  0  0  0  0
    2.6133   -2.4625    0.0000 H   0  0  0  0  0  0  0  0  0  0  0  0
    4.2301    2.3809    0.0000 H   0  0  0  0  0  0  0  0  0  0  0  0
    3.2992    1.9405    0.0000 H   0  0  0  0  0  0  0  0  0  0  0  0
    1.7652   -0.1742    0.0000 H   0  0  0  0  0  0  0  0  0  0  0  0
    2.0490   -0.9539    0.0000 H   0  0  0  0  0  0  0  0  0  0  0  0
  1  5  1  0  0  0  0
  1  6  1  0  0  0  0
  2 12  2  0  0  0  0
  3  4  1  0  0  0  0
  3  8  1  0  0  0  0
  3  9  1  0  0  0  0
  3 11  1  0  0  0  0
  4  5  1  0  0  0  0
  4 10  1  0  0  0  0
  4 13  1  0  0  0  0
  5  6  1  0  0  0  0
  5 14  1  0  0  0  0
  6  7  1  0  0  0  0
  6 15  1  0  0  0  0
  7 10  1  0  0  0  0
  7 12  1  0  0  0  0
  7 16  1  0  0  0  0
  8  9  1  0  0  0  0
  8 17  1  0  0  0  0
  8 18  1  0  0  0  0
  9 19  1  0  0  0  0
  9 20  1  0  0  0  0
 10 21  1  0  0  0  0
 10 22  1  0  0  0  0
 11 12  1  0  0  0  0
 11 23  1  0  0  0  0
 11 24  1  0  0  0  0
M  END
> <PUBCHEM_COMPOUND_CID>
556422

> <PUBCHEM_COMPOUND_CANONICALIZED>
1

> <PUBCHEM_CACTVS_COMPLEXITY>
280

> <PUBCHEM_CACTVS_HBOND_ACCEPTOR>
2

> <PUBCHEM_CACTVS_HBOND_DONOR>
0

> <PUBCHEM_CACTVS_ROTATABLE_BOND>
0

> <PUBCHEM_CACTVS_SUBSKEYS>
AAADccBwMAAAAAAAAAAAAAAAGiAAAYAAAAA0QAAABgAAAAAAAAAAGgAAAAAADxSggAIAAAAABAAIAIAQAAAAAAAAAAAAAAEAAAAAABYAAAACAAAEIAAAAAGKzPDPgAAAAAAAAACAAAQAACAAAYAABAAAAA==

> <PUBCHEM_IUPAC_OPENEYE_NAME>
spiro[3-oxatricyclo[3.3.1.02,4]nonane-8,1'-cyclopropane]-6-one

> <PUBCHEM_IUPAC_CAS_NAME>
6-spiro[3-oxatricyclo[3.3.1.02,4]nonane-8,1'-cyclopropane]one

> <PUBCHEM_IUPAC_NAME_MARKUP>
spiro[3-oxatricyclo[3.3.1.0<SUP>2,4</SUP>]nonane-8,1&apos;-cyclopropane]-6-one

> <PUBCHEM_IUPAC_NAME>
spiro[3-oxatricyclo[3.3.1.02,4]nonane-8,1'-cyclopropane]-6-one

> <PUBCHEM_IUPAC_SYSTEMATIC_NAME>
spiro[3-oxatricyclo[3.3.1.02,4]nonane-8,1'-cyclopropane]-6-one

> <PUBCHEM_IUPAC_TRADITIONAL_NAME>
spiro[3-oxatricyclo[3.3.1.02,4]nonane-8,1'-cyclopropane]-6-one

> <PUBCHEM_IUPAC_INCHI>
InChI=1S/C10H12O2/c11-7-4-10(1-2-10)6-3-5(7)8-9(6)12-8/h5-6,8-9H,1-4H2

> <PUBCHEM_IUPAC_INCHIKEY>
DCHIQXNOWCKXTH-UHFFFAOYSA-N

> <PUBCHEM_XLOGP3_AA>
0.8

> <PUBCHEM_EXACT_MASS>
164.083729621

> <PUBCHEM_MOLECULAR_FORMULA>
C10H12O2

> <PUBCHEM_MOLECULAR_WEIGHT>
164.20

> <PUBCHEM_SMILES>
C1CC12CC(=O)C3CC2C4C3O4

> <PUBCHEM_CONNECTIVITY_SMILES>
C1CC12CC(=O)C3CC2C4C3O4

> <PUBCHEM_CACTVS_TPSA>
29.6

> <PUBCHEM_MONOISOTOPIC_WEIGHT>
164.083729621

> <PUBCHEM_TOTAL_CHARGE>
0

> <PUBCHEM_HEAVY_ATOM_COUNT>
12

> <PUBCHEM_ATOM_DEF_STEREO_COUNT>
0

> <PUBCHEM_ATOM_UDEF_STEREO_COUNT>
4

> <PUBCHEM_BOND_DEF_STEREO_COUNT>
0

> <PUBCHEM_BOND_UDEF_STEREO_COUNT>
0

> <PUBCHEM_ISOTOPIC_ATOM_COUNT>
0

> <PUBCHEM_COMPONENT_COUNT>
1

> <PUBCHEM_CACTVS_TAUTO_COUNT>
-1

> <PUBCHEM_COORDINATE_TYPE>
1
5
255

> <PUBCHEM_BONDANNOTATIONS>
5  1  3
6  1  3
4  10  3
7  10  3

$$$$
