557551
  -OEChem-05122609202D

 42 42  0     1  0  0  0  0  0999 V2000
    3.9692   -2.3746    0.0000 O   0  0  0  0  0  0  0  0  0  0  0  0
    4.2509   -1.4151    0.0000 C   0  0  3  0  0  0  0  0  0  0  0  0
    2.9096    1.5219    0.0000 C   0  0  0  0  0  0  0  0  0  0  0  0
    5.2104   -1.1333    0.0000 C   0  0  0  0  0  0  0  0  0  0  0  0
    3.2914   -1.1333    0.0000 C   0  0  0  0  0  0  0  0  0  0  0  0
    5.8652   -0.3776    0.0000 C   0  0  0  0  0  0  0  0  0  0  0  0
    3.7509    2.0625    0.0000 C   0  0  0  0  0  0  0  0  0  0  0  0
    6.0076    0.6122    0.0000 C   0  0  0  0  0  0  0  0  0  0  0  0
    2.4942    0.6122    0.0000 C   0  0  0  0  0  0  0  0  0  0  0  0
    2.6365   -0.3776    0.0000 C   0  0  0  0  0  0  0  0  0  0  0  0
    4.9746   -2.1052    0.0000 C   0  0  0  0  0  0  0  0  0  0  0  0
    5.5921    1.5219    0.0000 C   0  0  0  0  0  0  0  0  0  0  0  0
    4.7509    2.0625    0.0000 C   0  0  0  0  0  0  0  0  0  0  0  0
    2.8621    2.5207    0.0000 C   0  0  0  0  0  0  0  0  0  0  0  0
    2.0000    1.9373    0.0000 C   0  0  0  0  0  0  0  0  0  0  0  0
    6.3479    2.1767    0.0000 C   0  0  0  0  0  0  0  0  0  0  0  0
    5.1809   -1.7526    0.0000 H   0  0  0  0  0  0  0  0  0  0  0  0
    4.8752   -0.6118    0.0000 H   0  0  0  0  0  0  0  0  0  0  0  0
    2.7158   -1.3638    0.0000 H   0  0  0  0  0  0  0  0  0  0  0  0
    3.6266   -0.6118    0.0000 H   0  0  0  0  0  0  0  0  0  0  0  0
    6.1752   -0.9145    0.0000 H   0  0  0  0  0  0  0  0  0  0  0  0
    5.3013   -0.1200    0.0000 H   0  0  0  0  0  0  0  0  0  0  0  0
    3.9537    2.6484    0.0000 H   0  0  0  0  0  0  0  0  0  0  0  0
    3.9256    1.4676    0.0000 H   0  0  0  0  0  0  0  0  0  0  0  0
    6.5586    0.3281    0.0000 H   0  0  0  0  0  0  0  0  0  0  0  0
    5.3939    0.5240    0.0000 H   0  0  0  0  0  0  0  0  0  0  0  0
    1.8805    0.7005    0.0000 H   0  0  0  0  0  0  0  0  0  0  0  0
    2.0726   -0.6351    0.0000 H   0  0  0  0  0  0  0  0  0  0  0  0
    4.5468   -2.5539    0.0000 H   0  0  0  0  0  0  0  0  0  0  0  0
    5.4233   -2.5330    0.0000 H   0  0  0  0  0  0  0  0  0  0  0  0
    5.4025   -1.6564    0.0000 H   0  0  0  0  0  0  0  0  0  0  0  0
    4.9256    2.6574    0.0000 H   0  0  0  0  0  0  0  0  0  0  0  0
    3.4814    2.5502    0.0000 H   0  0  0  0  0  0  0  0  0  0  0  0
    2.8326    3.1400    0.0000 H   0  0  0  0  0  0  0  0  0  0  0  0
    2.2428    2.4912    0.0000 H   0  0  0  0  0  0  0  0  0  0  0  0
    2.2576    2.5013    0.0000 H   0  0  0  0  0  0  0  0  0  0  0  0
    1.4360    2.1948    0.0000 H   0  0  0  0  0  0  0  0  0  0  0  0
    1.7424    1.3733    0.0000 H   0  0  0  0  0  0  0  0  0  0  0  0
    3.3666   -2.5207    0.0000 H   0  0  0  0  0  0  0  0  0  0  0  0
    6.7539    1.7082    0.0000 H   0  0  0  0  0  0  0  0  0  0  0  0
    6.8165    2.5827    0.0000 H   0  0  0  0  0  0  0  0  0  0  0  0
    5.9419    2.6453    0.0000 H   0  0  0  0  0  0  0  0  0  0  0  0
  1  2  1  0  0  0  0
  1 39  1  0  0  0  0
  2  4  1  0  0  0  0
  2  5  1  0  0  0  0
  2 11  1  0  0  0  0
  3  7  1  0  0  0  0
  3  9  1  0  0  0  0
  3 14  1  0  0  0  0
  3 15  1  0  0  0  0
  4  6  1  0  0  0  0
  4 17  1  0  0  0  0
  4 18  1  0  0  0  0
  5 10  1  0  0  0  0
  5 19  1  0  0  0  0
  5 20  1  0  0  0  0
  6  8  1  0  0  0  0
  6 21  1  0  0  0  0
  6 22  1  0  0  0  0
  7 13  1  0  0  0  0
  7 23  1  0  0  0  0
  7 24  1  0  0  0  0
  8 12  1  0  0  0  0
  8 25  1  0  0  0  0
  8 26  1  0  0  0  0
  9 10  2  3  0  0  0
  9 27  1  0  0  0  0
 10 28  1  0  0  0  0
 11 29  1  0  0  0  0
 11 30  1  0  0  0  0
 11 31  1  0  0  0  0
 12 13  2  3  0  0  0
 12 16  1  0  0  0  0
 13 32  1  0  0  0  0
 14 33  1  0  0  0  0
 14 34  1  0  0  0  0
 14 35  1  0  0  0  0
 15 36  1  0  0  0  0
 15 37  1  0  0  0  0
 15 38  1  0  0  0  0
 16 40  1  0  0  0  0
 16 41  1  0  0  0  0
 16 42  1  0  0  0  0
M  END
> <PUBCHEM_COMPOUND_CID>
557551

> <PUBCHEM_COMPOUND_CANONICALIZED>
1

> <PUBCHEM_CACTVS_COMPLEXITY>
286

> <PUBCHEM_CACTVS_HBOND_ACCEPTOR>
1

> <PUBCHEM_CACTVS_HBOND_DONOR>
1

> <PUBCHEM_CACTVS_ROTATABLE_BOND>
0

> <PUBCHEM_CACTVS_SUBSKEYS>
AAADceBwIAAAAAAAAAAAAAAAAAAAAAAAAAAAAAAAAAAAAAAAAAAAGgAACAAADkSAgAACAAAAAgCAAiBCAAAAAAAgAAAICAAAAAgAAAIAAQAAQAAEwAAIAAOAwMAPAAAAAAAAAAAAAAAAAAAAAAAAAAAAAA==

> <PUBCHEM_IUPAC_OPENEYE_NAME>
1,5,5,8-tetramethylcycloundeca-3,7-dien-1-ol

> <PUBCHEM_IUPAC_CAS_NAME>
1,5,5,8-tetramethyl-1-cycloundeca-3,7-dienol

> <PUBCHEM_IUPAC_NAME_MARKUP>
1,5,5,8-tetramethylcycloundeca-3,7-dien-1-ol

> <PUBCHEM_IUPAC_NAME>
1,5,5,8-tetramethylcycloundeca-3,7-dien-1-ol

> <PUBCHEM_IUPAC_SYSTEMATIC_NAME>
1,5,5,8-tetramethylcycloundeca-3,7-dien-1-ol

> <PUBCHEM_IUPAC_TRADITIONAL_NAME>
1,5,5,8-tetramethylcycloundeca-3,7-dien-1-ol

> <PUBCHEM_IUPAC_INCHI>
InChI=1S/C15H26O/c1-13-7-5-10-15(4,16)11-6-9-14(2,3)12-8-13/h6,8-9,16H,5,7,10-12H2,1-4H3

> <PUBCHEM_IUPAC_INCHIKEY>
ZLMAVMBYWKVCLV-UHFFFAOYSA-N

> <PUBCHEM_XLOGP3_AA>
3.8

> <PUBCHEM_EXACT_MASS>
222.198365449

> <PUBCHEM_MOLECULAR_FORMULA>
C15H26O

> <PUBCHEM_MOLECULAR_WEIGHT>
222.37

> <PUBCHEM_SMILES>
CC1=CCC(C=CCC(CCC1)(C)O)(C)C

> <PUBCHEM_CONNECTIVITY_SMILES>
CC1=CCC(C=CCC(CCC1)(C)O)(C)C

> <PUBCHEM_CACTVS_TPSA>
20.2

> <PUBCHEM_MONOISOTOPIC_WEIGHT>
222.198365449

> <PUBCHEM_TOTAL_CHARGE>
0

> <PUBCHEM_HEAVY_ATOM_COUNT>
16

> <PUBCHEM_ATOM_DEF_STEREO_COUNT>
0

> <PUBCHEM_ATOM_UDEF_STEREO_COUNT>
1

> <PUBCHEM_BOND_DEF_STEREO_COUNT>
0

> <PUBCHEM_BOND_UDEF_STEREO_COUNT>
2

> <PUBCHEM_ISOTOPIC_ATOM_COUNT>
0

> <PUBCHEM_COMPONENT_COUNT>
1

> <PUBCHEM_CACTVS_TAUTO_COUNT>
-1

> <PUBCHEM_COORDINATE_TYPE>
1
5
255

> <PUBCHEM_BONDANNOTATIONS>
2  1  3
12  13  1
9  10  1

$$$$
