558352
  -OEChem-05122609482D

 24 24  0     0  0  0  0  0  0999 V2000
    2.9332    2.9243    0.0000 O   0  0  0  0  0  0  0  0  0  0  0  0
    3.4810   -2.9243    0.0000 O   0  0  0  0  0  0  0  0  0  0  0  0
    2.7071    1.2071    0.0000 N   0  0  0  0  0  0  0  0  0  0  0  0
    3.7071   -1.2071    0.0000 N   0  0  0  0  0  0  0  0  0  0  0  0
    2.3244    2.1310    0.0000 N   0  0  0  0  0  0  0  0  0  0  0  0
    4.0898   -2.1310    0.0000 N   0  0  0  0  0  0  0  0  0  0  0  0
    2.0000   -0.5000    0.0000 C   0  0  0  0  0  0  0  0  0  0  0  0
    4.4142    0.5000    0.0000 C   0  0  0  0  0  0  0  0  0  0  0  0
    2.0000    0.5000    0.0000 C   0  0  0  0  0  0  0  0  0  0  0  0
    3.7071    1.2071    0.0000 C   0  0  0  0  0  0  0  0  0  0  0  0
    2.7071   -1.2071    0.0000 C   0  0  0  0  0  0  0  0  0  0  0  0
    4.4142   -0.5000    0.0000 C   0  0  0  0  0  0  0  0  0  0  0  0
    1.4011   -0.3395    0.0000 H   0  0  0  0  0  0  0  0  0  0  0  0
    1.6900   -1.0369    0.0000 H   0  0  0  0  0  0  0  0  0  0  0  0
    5.0131    0.3395    0.0000 H   0  0  0  0  0  0  0  0  0  0  0  0
    4.7242    1.0369    0.0000 H   0  0  0  0  0  0  0  0  0  0  0  0
    1.6900    1.0369    0.0000 H   0  0  0  0  0  0  0  0  0  0  0  0
    1.4011    0.3395    0.0000 H   0  0  0  0  0  0  0  0  0  0  0  0
    4.2440    1.5171    0.0000 H   0  0  0  0  0  0  0  0  0  0  0  0
    3.5466    1.8060    0.0000 H   0  0  0  0  0  0  0  0  0  0  0  0
    2.1702   -1.5171    0.0000 H   0  0  0  0  0  0  0  0  0  0  0  0
    2.8676   -1.8060    0.0000 H   0  0  0  0  0  0  0  0  0  0  0  0
    4.7242   -1.0369    0.0000 H   0  0  0  0  0  0  0  0  0  0  0  0
    5.0131   -0.3395    0.0000 H   0  0  0  0  0  0  0  0  0  0  0  0
  1  5  2  0  0  0  0
  2  6  2  0  0  0  0
  3  5  1  0  0  0  0
  3  9  1  0  0  0  0
  3 10  1  0  0  0  0
  4  6  1  0  0  0  0
  4 11  1  0  0  0  0
  4 12  1  0  0  0  0
  7  9  1  0  0  0  0
  7 11  1  0  0  0  0
  7 13  1  0  0  0  0
  7 14  1  0  0  0  0
  8 10  1  0  0  0  0
  8 12  1  0  0  0  0
  8 15  1  0  0  0  0
  8 16  1  0  0  0  0
  9 17  1  0  0  0  0
  9 18  1  0  0  0  0
 10 19  1  0  0  0  0
 10 20  1  0  0  0  0
 11 21  1  0  0  0  0
 11 22  1  0  0  0  0
 12 23  1  0  0  0  0
 12 24  1  0  0  0  0
M  END
> <PUBCHEM_COMPOUND_CID>
558352

> <PUBCHEM_COMPOUND_CANONICALIZED>
1

> <PUBCHEM_CACTVS_COMPLEXITY>
138

> <PUBCHEM_CACTVS_HBOND_ACCEPTOR>
6

> <PUBCHEM_CACTVS_HBOND_DONOR>
0

> <PUBCHEM_CACTVS_ROTATABLE_BOND>
0

> <PUBCHEM_CACTVS_SUBSKEYS>
AAADccBjsAAAAAAAAAAAAAAAAAAAAAAAAAAAAAAAAAAWAAAAAAAAHAAMAAAACADBAAQAAAIAAAABAAAAAAAAAAAAAAAQAAAIAAAAAAAAQAAEAAAAAACAAAAAAAAAAAAAAAAAAAAAAAAAAAAAAAAAAAAAAA==

> <PUBCHEM_IUPAC_OPENEYE_NAME>
1,5-dinitroso-1,5-diazocane

> <PUBCHEM_IUPAC_CAS_NAME>
1,5-dinitroso-1,5-diazocane

> <PUBCHEM_IUPAC_NAME_MARKUP>
1,5-dinitroso-1,5-diazocane

> <PUBCHEM_IUPAC_NAME>
1,5-dinitroso-1,5-diazocane

> <PUBCHEM_IUPAC_SYSTEMATIC_NAME>
1,5-dinitroso-1,5-diazocane

> <PUBCHEM_IUPAC_TRADITIONAL_NAME>
1,5-dinitroso-1,5-diazocane

> <PUBCHEM_IUPAC_INCHI>
InChI=1S/C6H12N4O2/c11-7-9-3-1-4-10(8-12)6-2-5-9/h1-6H2

> <PUBCHEM_IUPAC_INCHIKEY>
URLYYQHDXKNTGO-UHFFFAOYSA-N

> <PUBCHEM_XLOGP3_AA>
0.6

> <PUBCHEM_EXACT_MASS>
172.09602564

> <PUBCHEM_MOLECULAR_FORMULA>
C6H12N4O2

> <PUBCHEM_MOLECULAR_WEIGHT>
172.19

> <PUBCHEM_SMILES>
C1CN(CCCN(C1)N=O)N=O

> <PUBCHEM_CONNECTIVITY_SMILES>
C1CN(CCCN(C1)N=O)N=O

> <PUBCHEM_CACTVS_TPSA>
65.3

> <PUBCHEM_MONOISOTOPIC_WEIGHT>
172.09602564

> <PUBCHEM_TOTAL_CHARGE>
0

> <PUBCHEM_HEAVY_ATOM_COUNT>
12

> <PUBCHEM_ATOM_DEF_STEREO_COUNT>
0

> <PUBCHEM_ATOM_UDEF_STEREO_COUNT>
0

> <PUBCHEM_BOND_DEF_STEREO_COUNT>
0

> <PUBCHEM_BOND_UDEF_STEREO_COUNT>
0

> <PUBCHEM_ISOTOPIC_ATOM_COUNT>
0

> <PUBCHEM_COMPONENT_COUNT>
1

> <PUBCHEM_CACTVS_TAUTO_COUNT>
-1

> <PUBCHEM_COORDINATE_TYPE>
1
5
255

$$$$
