558447
  -OEChem-05122609282D

 10 10  0     0  0  0  0  0  0999 V2000
    2.8090    0.7694    0.0000 O   0  0  0  0  0  0  0  0  0  0  0  0
    3.3090   -0.7694    0.0000 N   0  0  0  0  0  0  0  0  0  0  0  0
    2.3090   -0.7694    0.0000 N   0  0  0  0  0  0  0  0  0  0  0  0
    3.6180    0.1816    0.0000 C   0  0  0  0  0  0  0  0  0  0  0  0
    4.5691    0.4907    0.0000 C   0  0  0  0  0  0  0  0  0  0  0  0
    2.0000    0.1816    0.0000 C   0  0  0  0  0  0  0  0  0  0  0  0
    4.7607   -0.0990    0.0000 H   0  0  0  0  0  0  0  0  0  0  0  0
    5.1588    0.6822    0.0000 H   0  0  0  0  0  0  0  0  0  0  0  0
    4.3775    1.0803    0.0000 H   0  0  0  0  0  0  0  0  0  0  0  0
    1.4103    0.3732    0.0000 H   0  0  0  0  0  0  0  0  0  0  0  0
  1  4  1  0  0  0  0
  1  6  1  0  0  0  0
  2  3  1  0  0  0  0
  2  4  2  0  0  0  0
  3  6  2  0  0  0  0
  4  5  1  0  0  0  0
  5  7  1  0  0  0  0
  5  8  1  0  0  0  0
  5  9  1  0  0  0  0
  6 10  1  0  0  0  0
M  END
> <PUBCHEM_COMPOUND_CID>
558447

> <PUBCHEM_COMPOUND_CANONICALIZED>
1

> <PUBCHEM_CACTVS_COMPLEXITY>
48.1

> <PUBCHEM_CACTVS_HBOND_ACCEPTOR>
3

> <PUBCHEM_CACTVS_HBOND_DONOR>
0

> <PUBCHEM_CACTVS_ROTATABLE_BOND>
0

> <PUBCHEM_CACTVS_SUBSKEYS>
AAADcYBDIAAAAAAAAAAAAAAAAAAAAWAAAAAAAAAAAAAAAAABgAAAHgAIAAAAAACBggYGAAAABEAqAAExkAAQAAAIgAASAAAQAAAAAAAAAAAIAAAACAAAAAAAAAAAAAAAAAAAAAAAAAAAAAAAAAAAAAAAAA==

> <PUBCHEM_IUPAC_OPENEYE_NAME>
2-methyl-1,3,4-oxadiazole

> <PUBCHEM_IUPAC_CAS_NAME>
2-methyl-1,3,4-oxadiazole

> <PUBCHEM_IUPAC_NAME_MARKUP>
2-methyl-1,3,4-oxadiazole

> <PUBCHEM_IUPAC_NAME>
2-methyl-1,3,4-oxadiazole

> <PUBCHEM_IUPAC_SYSTEMATIC_NAME>
2-methyl-1,3,4-oxadiazole

> <PUBCHEM_IUPAC_TRADITIONAL_NAME>
2-methyl-1,3,4-oxadiazole

> <PUBCHEM_IUPAC_INCHI>
InChI=1S/C3H4N2O/c1-3-5-4-2-6-3/h2H,1H3

> <PUBCHEM_IUPAC_INCHIKEY>
ZMSIFDIKIXVLDF-UHFFFAOYSA-N

> <PUBCHEM_XLOGP3_AA>
0.2

> <PUBCHEM_EXACT_MASS>
84.032362755

> <PUBCHEM_MOLECULAR_FORMULA>
C3H4N2O

> <PUBCHEM_MOLECULAR_WEIGHT>
84.08

> <PUBCHEM_SMILES>
CC1=NN=CO1

> <PUBCHEM_CONNECTIVITY_SMILES>
CC1=NN=CO1

> <PUBCHEM_CACTVS_TPSA>
38.9

> <PUBCHEM_MONOISOTOPIC_WEIGHT>
84.032362755

> <PUBCHEM_TOTAL_CHARGE>
0

> <PUBCHEM_HEAVY_ATOM_COUNT>
6

> <PUBCHEM_ATOM_DEF_STEREO_COUNT>
0

> <PUBCHEM_ATOM_UDEF_STEREO_COUNT>
0

> <PUBCHEM_BOND_DEF_STEREO_COUNT>
0

> <PUBCHEM_BOND_UDEF_STEREO_COUNT>
0

> <PUBCHEM_ISOTOPIC_ATOM_COUNT>
0

> <PUBCHEM_COMPONENT_COUNT>
1

> <PUBCHEM_CACTVS_TAUTO_COUNT>
-1

> <PUBCHEM_COORDINATE_TYPE>
1
5
255

> <PUBCHEM_BONDANNOTATIONS>
1  4  8
1  6  8
2  3  8
2  4  8
3  6  8

$$$$
