558590
  -OEChem-05122609432D

 29 29  0     1  0  0  0  0  0999 V2000
    3.7601   -1.8021    0.0000 O   0  0  0  0  0  0  0  0  0  0  0  0
    3.7601   -0.8021    0.0000 N   0  0  3  0  0  0  0  0  0  0  0  0
    2.6723    1.5457    0.0000 N   0  0  0  0  0  0  0  0  0  0  0  0
    2.9511   -0.2143    0.0000 C   0  0  0  0  0  0  0  0  0  0  0  0
    4.5691   -0.2143    0.0000 C   0  0  0  0  0  0  0  0  0  0  0  0
    3.2601    0.7367    0.0000 C   0  0  3  0  0  0  0  0  0  0  0  0
    4.2601    0.7367    0.0000 C   0  0  0  0  0  0  0  0  0  0  0  0
    2.0000    0.0947    0.0000 C   0  0  0  0  0  0  0  0  0  0  0  0
    2.3633   -1.0234    0.0000 C   0  0  0  0  0  0  0  0  0  0  0  0
    5.5202    0.0947    0.0000 C   0  0  0  0  0  0  0  0  0  0  0  0
    5.1569   -1.0234    0.0000 C   0  0  0  0  0  0  0  0  0  0  0  0
    3.5416    1.2891    0.0000 H   0  0  0  0  0  0  0  0  0  0  0  0
    4.8665    0.8656    0.0000 H   0  0  0  0  0  0  0  0  0  0  0  0
    4.1953    1.3533    0.0000 H   0  0  0  0  0  0  0  0  0  0  0  0
    2.1916    0.6843    0.0000 H   0  0  0  0  0  0  0  0  0  0  0  0
    1.4103    0.2863    0.0000 H   0  0  0  0  0  0  0  0  0  0  0  0
    1.8084   -0.4950    0.0000 H   0  0  0  0  0  0  0  0  0  0  0  0
    1.8617   -0.6589    0.0000 H   0  0  0  0  0  0  0  0  0  0  0  0
    1.9988   -1.5250    0.0000 H   0  0  0  0  0  0  0  0  0  0  0  0
    2.8649   -1.3878    0.0000 H   0  0  0  0  0  0  0  0  0  0  0  0
    5.7117   -0.4950    0.0000 H   0  0  0  0  0  0  0  0  0  0  0  0
    6.1098    0.2863    0.0000 H   0  0  0  0  0  0  0  0  0  0  0  0
    5.3286    0.6843    0.0000 H   0  0  0  0  0  0  0  0  0  0  0  0
    4.6553   -1.3878    0.0000 H   0  0  0  0  0  0  0  0  0  0  0  0
    5.5213   -1.5250    0.0000 H   0  0  0  0  0  0  0  0  0  0  0  0
    5.6585   -0.6589    0.0000 H   0  0  0  0  0  0  0  0  0  0  0  0
    2.9245    2.1121    0.0000 H   0  0  0  0  0  0  0  0  0  0  0  0
    2.0557    1.4809    0.0000 H   0  0  0  0  0  0  0  0  0  0  0  0
    4.2970   -2.1121    0.0000 H   0  0  0  0  0  0  0  0  0  0  0  0
  1  2  1  0  0  0  0
  1 29  1  0  0  0  0
  2  4  1  0  0  0  0
  2  5  1  0  0  0  0
  3  6  1  0  0  0  0
  3 27  1  0  0  0  0
  3 28  1  0  0  0  0
  4  6  1  0  0  0  0
  4  8  1  0  0  0  0
  4  9  1  0  0  0  0
  5  7  1  0  0  0  0
  5 10  1  0  0  0  0
  5 11  1  0  0  0  0
  6  7  1  0  0  0  0
  6 12  1  0  0  0  0
  7 13  1  0  0  0  0
  7 14  1  0  0  0  0
  8 15  1  0  0  0  0
  8 16  1  0  0  0  0
  8 17  1  0  0  0  0
  9 18  1  0  0  0  0
  9 19  1  0  0  0  0
  9 20  1  0  0  0  0
 10 21  1  0  0  0  0
 10 22  1  0  0  0  0
 10 23  1  0  0  0  0
 11 24  1  0  0  0  0
 11 25  1  0  0  0  0
 11 26  1  0  0  0  0
M  END
> <PUBCHEM_COMPOUND_CID>
558590

> <PUBCHEM_COMPOUND_CANONICALIZED>
1

> <PUBCHEM_CACTVS_COMPLEXITY>
165

> <PUBCHEM_CACTVS_HBOND_ACCEPTOR>
3

> <PUBCHEM_CACTVS_HBOND_DONOR>
2

> <PUBCHEM_CACTVS_ROTATABLE_BOND>
0

> <PUBCHEM_CACTVS_SUBSKEYS>
AAADceBzIAAAAAAAAAAAAAAAAAAAAWAAAAAAAAAAAAAAAAAAAAAAHAAUCAAADKjBAAQCAAJQAAAAAAAAAAAAAAAAAAAgAIAAAAAAQAIAwAAUAAAAEACAAAEQAAAMAAAAAAAAAAAAAAAAAAAAAAAAAAAAAA==

> <PUBCHEM_IUPAC_OPENEYE_NAME>
1-hydroxy-2,2,5,5-tetramethyl-pyrrolidin-3-amine

> <PUBCHEM_IUPAC_CAS_NAME>
1-hydroxy-2,2,5,5-tetramethyl-3-pyrrolidinamine

> <PUBCHEM_IUPAC_NAME_MARKUP>
1-hydroxy-2,2,5,5-tetramethylpyrrolidin-3-amine

> <PUBCHEM_IUPAC_NAME>
1-hydroxy-2,2,5,5-tetramethylpyrrolidin-3-amine

> <PUBCHEM_IUPAC_SYSTEMATIC_NAME>
2,2,5,5-tetramethyl-1-oxidanyl-pyrrolidin-3-amine

> <PUBCHEM_IUPAC_TRADITIONAL_NAME>
(1-hydroxy-2,2,5,5-tetramethyl-pyrrolidin-3-yl)amine

> <PUBCHEM_IUPAC_INCHI>
InChI=1S/C8H18N2O/c1-7(2)5-6(9)8(3,4)10(7)11/h6,11H,5,9H2,1-4H3

> <PUBCHEM_IUPAC_INCHIKEY>
USGBLEMQARVRDC-UHFFFAOYSA-N

> <PUBCHEM_XLOGP3_AA>
0.3

> <PUBCHEM_EXACT_MASS>
158.141913202

> <PUBCHEM_MOLECULAR_FORMULA>
C8H18N2O

> <PUBCHEM_MOLECULAR_WEIGHT>
158.24

> <PUBCHEM_SMILES>
CC1(CC(C(N1O)(C)C)N)C

> <PUBCHEM_CONNECTIVITY_SMILES>
CC1(CC(C(N1O)(C)C)N)C

> <PUBCHEM_CACTVS_TPSA>
49.5

> <PUBCHEM_MONOISOTOPIC_WEIGHT>
158.141913202

> <PUBCHEM_TOTAL_CHARGE>
0

> <PUBCHEM_HEAVY_ATOM_COUNT>
11

> <PUBCHEM_ATOM_DEF_STEREO_COUNT>
0

> <PUBCHEM_ATOM_UDEF_STEREO_COUNT>
1

> <PUBCHEM_BOND_DEF_STEREO_COUNT>
0

> <PUBCHEM_BOND_UDEF_STEREO_COUNT>
0

> <PUBCHEM_ISOTOPIC_ATOM_COUNT>
0

> <PUBCHEM_COMPONENT_COUNT>
1

> <PUBCHEM_CACTVS_TAUTO_COUNT>
-1

> <PUBCHEM_COORDINATE_TYPE>
1
5
255

> <PUBCHEM_BONDANNOTATIONS>
6  3  3

$$$$
