558612
  -OEChem-05122609162D

 26 26  0     1  0  0  0  0  0999 V2000
    3.7320   -1.7780    0.0000 O   0  0  0  0  0  0  0  0  0  0  0  0
    3.7320    1.2220    0.0000 C   0  0  0  0  0  0  0  0  0  0  0  0
    2.8660    0.7220    0.0000 C   0  0  0  0  0  0  0  0  0  0  0  0
    2.8660   -0.2780    0.0000 C   0  0  3  0  0  0  0  0  0  0  0  0
    3.7320   -0.7780    0.0000 C   0  0  3  0  0  0  0  0  0  0  0  0
    4.5981    0.7220    0.0000 C   0  0  0  0  0  0  0  0  0  0  0  0
    4.2320    2.0880    0.0000 C   0  0  0  0  0  0  0  0  0  0  0  0
    3.2320    2.0880    0.0000 C   0  0  0  0  0  0  0  0  0  0  0  0
    4.5981   -0.2780    0.0000 C   0  0  0  0  0  0  0  0  0  0  0  0
    2.0000   -0.7780    0.0000 C   0  0  0  0  0  0  0  0  0  0  0  0
    2.6540    1.3046    0.0000 H   0  0  0  0  0  0  0  0  0  0  0  0
    2.2554    0.6143    0.0000 H   0  0  0  0  0  0  0  0  0  0  0  0
    2.8660   -0.8980    0.0000 H   0  0  0  0  0  0  0  0  0  0  0  0
    4.2690   -1.0880    0.0000 H   0  0  0  0  0  0  0  0  0  0  0  0
    5.1350    1.0320    0.0000 H   0  0  0  0  0  0  0  0  0  0  0  0
    4.7690    1.7780    0.0000 H   0  0  0  0  0  0  0  0  0  0  0  0
    4.5420    2.6250    0.0000 H   0  0  0  0  0  0  0  0  0  0  0  0
    3.6951    2.3980    0.0000 H   0  0  0  0  0  0  0  0  0  0  0  0
    3.7690    2.3980    0.0000 H   0  0  0  0  0  0  0  0  0  0  0  0
    2.9220    2.6250    0.0000 H   0  0  0  0  0  0  0  0  0  0  0  0
    2.6951    1.7780    0.0000 H   0  0  0  0  0  0  0  0  0  0  0  0
    5.1350   -0.5880    0.0000 H   0  0  0  0  0  0  0  0  0  0  0  0
    1.6900   -0.2411    0.0000 H   0  0  0  0  0  0  0  0  0  0  0  0
    1.4631   -1.0880    0.0000 H   0  0  0  0  0  0  0  0  0  0  0  0
    2.3100   -1.3150    0.0000 H   0  0  0  0  0  0  0  0  0  0  0  0
    4.2690   -2.0880    0.0000 H   0  0  0  0  0  0  0  0  0  0  0  0
  1  5  1  0  0  0  0
  1 26  1  0  0  0  0
  2  3  1  0  0  0  0
  2  6  1  0  0  0  0
  2  7  1  0  0  0  0
  2  8  1  0  0  0  0
  3  4  1  0  0  0  0
  3 11  1  0  0  0  0
  3 12  1  0  0  0  0
  4  5  1  0  0  0  0
  4 10  1  0  0  0  0
  4 13  1  0  0  0  0
  5  9  1  0  0  0  0
  5 14  1  0  0  0  0
  6  9  2  0  0  0  0
  6 15  1  0  0  0  0
  7 16  1  0  0  0  0
  7 17  1  0  0  0  0
  7 18  1  0  0  0  0
  8 19  1  0  0  0  0
  8 20  1  0  0  0  0
  8 21  1  0  0  0  0
  9 22  1  0  0  0  0
 10 23  1  0  0  0  0
 10 24  1  0  0  0  0
 10 25  1  0  0  0  0
M  END
> <PUBCHEM_COMPOUND_CID>
558612

> <PUBCHEM_COMPOUND_CANONICALIZED>
1

> <PUBCHEM_CACTVS_COMPLEXITY>
147

> <PUBCHEM_CACTVS_HBOND_ACCEPTOR>
1

> <PUBCHEM_CACTVS_HBOND_DONOR>
1

> <PUBCHEM_CACTVS_ROTATABLE_BOND>
0

> <PUBCHEM_CACTVS_SUBSKEYS>
AAADceBwIAAAAAAAAAAAAAAAAAAAAAAAAAAgAAAAAAAAAAAAAAAAGgAACAAADxSggAICAAAAAgCAACBCAAAAAAAgAAAICAAAAAgAFAIAAQAAUAAEgAAIEAOAAAAPAAAAAAAAAAAAAAAAAAAAAAAAAAAAAA==

> <PUBCHEM_IUPAC_OPENEYE_NAME>
4,4,6-trimethylcyclohex-2-en-1-ol

> <PUBCHEM_IUPAC_CAS_NAME>
4,4,6-trimethyl-1-cyclohex-2-enol

> <PUBCHEM_IUPAC_NAME_MARKUP>
4,4,6-trimethylcyclohex-2-en-1-ol

> <PUBCHEM_IUPAC_NAME>
4,4,6-trimethylcyclohex-2-en-1-ol

> <PUBCHEM_IUPAC_SYSTEMATIC_NAME>
4,4,6-trimethylcyclohex-2-en-1-ol

> <PUBCHEM_IUPAC_TRADITIONAL_NAME>
4,4,6-trimethylcyclohex-2-en-1-ol

> <PUBCHEM_IUPAC_INCHI>
InChI=1S/C9H16O/c1-7-6-9(2,3)5-4-8(7)10/h4-5,7-8,10H,6H2,1-3H3

> <PUBCHEM_IUPAC_INCHIKEY>
NRODQAAVEUMKOS-UHFFFAOYSA-N

> <PUBCHEM_XLOGP3_AA>
2.3

> <PUBCHEM_EXACT_MASS>
140.120115130

> <PUBCHEM_MOLECULAR_FORMULA>
C9H16O

> <PUBCHEM_MOLECULAR_WEIGHT>
140.22

> <PUBCHEM_SMILES>
CC1CC(C=CC1O)(C)C

> <PUBCHEM_CONNECTIVITY_SMILES>
CC1CC(C=CC1O)(C)C

> <PUBCHEM_CACTVS_TPSA>
20.2

> <PUBCHEM_MONOISOTOPIC_WEIGHT>
140.120115130

> <PUBCHEM_TOTAL_CHARGE>
0

> <PUBCHEM_HEAVY_ATOM_COUNT>
10

> <PUBCHEM_ATOM_DEF_STEREO_COUNT>
0

> <PUBCHEM_ATOM_UDEF_STEREO_COUNT>
2

> <PUBCHEM_BOND_DEF_STEREO_COUNT>
0

> <PUBCHEM_BOND_UDEF_STEREO_COUNT>
0

> <PUBCHEM_ISOTOPIC_ATOM_COUNT>
0

> <PUBCHEM_COMPONENT_COUNT>
1

> <PUBCHEM_CACTVS_TAUTO_COUNT>
-1

> <PUBCHEM_COORDINATE_TYPE>
1
5
255

> <PUBCHEM_BONDANNOTATIONS>
5  1  3
4  10  3

$$$$
