559092
  -OEChem-05122609292D

 37 38  0     1  0  0  0  0  0999 V2000
    9.9282   -0.5670    0.0000 O   0  0  0  0  0  0  0  0  0  0  0  0
    8.1962   -0.5670    0.0000 O   0  0  0  0  0  0  0  0  0  0  0  0
    3.0000   -0.5670    0.0000 C   0  0  0  0  0  0  0  0  0  0  0  0
    2.0000   -0.5670    0.0000 C   0  0  0  0  0  0  0  0  0  0  0  0
    2.5000   -1.4330    0.0000 C   0  0  0  0  0  0  0  0  0  0  0  0
    9.0622    0.9330    0.0000 C   0  0  0  0  0  0  0  0  0  0  0  0
    9.0622   -0.0670    0.0000 C   0  0  3  0  0  0  0  0  0  0  0  0
    9.9282    1.4330    0.0000 C   0  0  0  0  0  0  0  0  0  0  0  0
   10.7942    0.9330    0.0000 C   0  0  0  0  0  0  0  0  0  0  0  0
    3.8660   -0.0670    0.0000 C   0  0  0  0  0  0  0  0  0  0  0  0
    4.7320   -0.5670    0.0000 C   0  0  0  0  0  0  0  0  0  0  0  0
    5.5981   -0.0670    0.0000 C   0  0  0  0  0  0  0  0  0  0  0  0
   10.7942   -0.0670    0.0000 C   0  0  0  0  0  0  0  0  0  0  0  0
    6.4641   -0.5670    0.0000 C   0  0  0  0  0  0  0  0  0  0  0  0
    7.3301   -0.0670    0.0000 C   0  0  0  0  0  0  0  0  0  0  0  0
    1.8923    0.0436    0.0000 H   0  0  0  0  0  0  0  0  0  0  0  0
    1.4174   -0.7790    0.0000 H   0  0  0  0  0  0  0  0  0  0  0  0
    2.0250   -1.8315    0.0000 H   0  0  0  0  0  0  0  0  0  0  0  0
    2.9750   -1.8315    0.0000 H   0  0  0  0  0  0  0  0  0  0  0  0
    8.8501    1.5156    0.0000 H   0  0  0  0  0  0  0  0  0  0  0  0
    8.4516    0.8254    0.0000 H   0  0  0  0  0  0  0  0  0  0  0  0
    8.5252    0.2430    0.0000 H   0  0  0  0  0  0  0  0  0  0  0  0
   10.3267    1.9080    0.0000 H   0  0  0  0  0  0  0  0  0  0  0  0
    9.5297    1.9080    0.0000 H   0  0  0  0  0  0  0  0  0  0  0  0
   11.4048    0.8254    0.0000 H   0  0  0  0  0  0  0  0  0  0  0  0
   11.0063    1.5156    0.0000 H   0  0  0  0  0  0  0  0  0  0  0  0
    4.3335   -1.0419    0.0000 H   0  0  0  0  0  0  0  0  0  0  0  0
    5.1306   -1.0419    0.0000 H   0  0  0  0  0  0  0  0  0  0  0  0
    3.8660    0.5530    0.0000 H   0  0  0  0  0  0  0  0  0  0  0  0
    5.9966    0.4080    0.0000 H   0  0  0  0  0  0  0  0  0  0  0  0
    5.1996    0.4080    0.0000 H   0  0  0  0  0  0  0  0  0  0  0  0
   11.0063   -0.6496    0.0000 H   0  0  0  0  0  0  0  0  0  0  0  0
   11.4048    0.0407    0.0000 H   0  0  0  0  0  0  0  0  0  0  0  0
    6.0656   -1.0419    0.0000 H   0  0  0  0  0  0  0  0  0  0  0  0
    6.8626   -1.0419    0.0000 H   0  0  0  0  0  0  0  0  0  0  0  0
    7.7287    0.4080    0.0000 H   0  0  0  0  0  0  0  0  0  0  0  0
    6.9316    0.4080    0.0000 H   0  0  0  0  0  0  0  0  0  0  0  0
  1  7  1  0  0  0  0
  1 13  1  0  0  0  0
  2  7  1  0  0  0  0
  2 15  1  0  0  0  0
  3  4  1  0  0  0  0
  3  5  1  0  0  0  0
  3 10  2  0  0  0  0
  4  5  1  0  0  0  0
  4 16  1  0  0  0  0
  4 17  1  0  0  0  0
  5 18  1  0  0  0  0
  5 19  1  0  0  0  0
  6  7  1  0  0  0  0
  6  8  1  0  0  0  0
  6 20  1  0  0  0  0
  6 21  1  0  0  0  0
  7 22  1  0  0  0  0
  8  9  1  0  0  0  0
  8 23  1  0  0  0  0
  8 24  1  0  0  0  0
  9 13  1  0  0  0  0
  9 25  1  0  0  0  0
  9 26  1  0  0  0  0
 10 11  1  0  0  0  0
 10 29  1  0  0  0  0
 11 12  1  0  0  0  0
 11 27  1  0  0  0  0
 11 28  1  0  0  0  0
 12 14  1  0  0  0  0
 12 30  1  0  0  0  0
 12 31  1  0  0  0  0
 13 32  1  0  0  0  0
 13 33  1  0  0  0  0
 14 15  1  0  0  0  0
 14 34  1  0  0  0  0
 14 35  1  0  0  0  0
 15 36  1  0  0  0  0
 15 37  1  0  0  0  0
M  END
> <PUBCHEM_COMPOUND_CID>
559092

> <PUBCHEM_COMPOUND_CANONICALIZED>
1

> <PUBCHEM_CACTVS_COMPLEXITY>
205

> <PUBCHEM_CACTVS_HBOND_ACCEPTOR>
2

> <PUBCHEM_CACTVS_HBOND_DONOR>
0

> <PUBCHEM_CACTVS_ROTATABLE_BOND>
6

> <PUBCHEM_CACTVS_SUBSKEYS>
AAADceBwMAAAAAAAAAAAAAAAGAAAAAAAAAAkAAAAAAAAAAAAAAAAGgAAAAAADACwgAMACAAABACAAiBCAAAAAAAgAAAACAAAAAgQAAIAAQAiAAAEgAAMAAKAIAgAAAAAAAAAAAAAAAAAAAAAAAAAAAAAAA==

> <PUBCHEM_IUPAC_OPENEYE_NAME>
2-(5-cyclopropylidenepentoxy)tetrahydropyran

> <PUBCHEM_IUPAC_CAS_NAME>
2-(5-cyclopropylidenepentoxy)oxane

> <PUBCHEM_IUPAC_NAME_MARKUP>
2-(5-cyclopropylidenepentoxy)oxane

> <PUBCHEM_IUPAC_NAME>
2-(5-cyclopropylidenepentoxy)oxane

> <PUBCHEM_IUPAC_SYSTEMATIC_NAME>
2-(5-cyclopropylidenepentoxy)oxane

> <PUBCHEM_IUPAC_TRADITIONAL_NAME>
2-(5-cyclopropylidenepentoxy)tetrahydropyran

> <PUBCHEM_IUPAC_INCHI>
InChI=1S/C13H22O2/c1(2-6-12-8-9-12)4-10-14-13-7-3-5-11-15-13/h6,13H,1-5,7-11H2

> <PUBCHEM_IUPAC_INCHIKEY>
MWFYPHGLDWIAEB-UHFFFAOYSA-N

> <PUBCHEM_XLOGP3_AA>
2.5

> <PUBCHEM_EXACT_MASS>
210.161979940

> <PUBCHEM_MOLECULAR_FORMULA>
C13H22O2

> <PUBCHEM_MOLECULAR_WEIGHT>
210.31

> <PUBCHEM_SMILES>
C1CCOC(C1)OCCCCC=C2CC2

> <PUBCHEM_CONNECTIVITY_SMILES>
C1CCOC(C1)OCCCCC=C2CC2

> <PUBCHEM_CACTVS_TPSA>
18.5

> <PUBCHEM_MONOISOTOPIC_WEIGHT>
210.161979940

> <PUBCHEM_TOTAL_CHARGE>
0

> <PUBCHEM_HEAVY_ATOM_COUNT>
15

> <PUBCHEM_ATOM_DEF_STEREO_COUNT>
0

> <PUBCHEM_ATOM_UDEF_STEREO_COUNT>
1

> <PUBCHEM_BOND_DEF_STEREO_COUNT>
0

> <PUBCHEM_BOND_UDEF_STEREO_COUNT>
0

> <PUBCHEM_ISOTOPIC_ATOM_COUNT>
0

> <PUBCHEM_COMPONENT_COUNT>
1

> <PUBCHEM_CACTVS_TAUTO_COUNT>
-1

> <PUBCHEM_COORDINATE_TYPE>
1
5
255

> <PUBCHEM_BONDANNOTATIONS>
7  2  3

$$$$
