560917
  -OEChem-05122608252D

 32 32  0     0  0  0  0  0  0999 V2000
    5.0000   -1.2990    0.0000 O   0  0  0  0  0  0  0  0  0  0  0  0
    3.5000    1.2990    0.0000 C   0  0  0  0  0  0  0  0  0  0  0  0
    4.0000    2.1651    0.0000 C   0  0  0  0  0  0  0  0  0  0  0  0
    2.5000    1.2990    0.0000 C   0  0  0  0  0  0  0  0  0  0  0  0
    5.0000    2.1651    0.0000 C   0  0  0  0  0  0  0  0  0  0  0  0
    2.0000    0.4330    0.0000 C   0  0  0  0  0  0  0  0  0  0  0  0
    6.0000   -1.2990    0.0000 C   0  0  0  0  0  0  0  0  0  0  0  0
    4.5000   -2.1651    0.0000 C   0  0  0  0  0  0  0  0  0  0  0  0
    6.5000   -0.4330    0.0000 C   0  0  0  0  0  0  0  0  0  0  0  0
    3.5000   -2.1651    0.0000 C   0  0  0  0  0  0  0  0  0  0  0  0
    5.5000    1.2990    0.0000 C   0  0  0  0  0  0  0  0  0  0  0  0
    2.5000   -0.4330    0.0000 C   0  0  0  0  0  0  0  0  0  0  0  0
    6.0000    0.4330    0.0000 C   0  0  0  0  0  0  0  0  0  0  0  0
    3.0000   -1.2990    0.0000 C   0  0  0  0  0  0  0  0  0  0  0  0
    3.3923    0.6885    0.0000 H   0  0  0  0  0  0  0  0  0  0  0  0
    4.0826    1.0870    0.0000 H   0  0  0  0  0  0  0  0  0  0  0  0
    4.1077    2.7756    0.0000 H   0  0  0  0  0  0  0  0  0  0  0  0
    3.4174    2.3771    0.0000 H   0  0  0  0  0  0  0  0  0  0  0  0
    2.6077    1.9096    0.0000 H   0  0  0  0  0  0  0  0  0  0  0  0
    1.9174    1.5111    0.0000 H   0  0  0  0  0  0  0  0  0  0  0  0
    5.5826    2.3771    0.0000 H   0  0  0  0  0  0  0  0  0  0  0  0
    4.8923    2.7756    0.0000 H   0  0  0  0  0  0  0  0  0  0  0  0
    1.5250    0.8315    0.0000 H   0  0  0  0  0  0  0  0  0  0  0  0
    1.5250    0.0345    0.0000 H   0  0  0  0  0  0  0  0  0  0  0  0
    5.8923   -1.9096    0.0000 H   0  0  0  0  0  0  0  0  0  0  0  0
    6.5826   -1.5111    0.0000 H   0  0  0  0  0  0  0  0  0  0  0  0
    4.3923   -2.7756    0.0000 H   0  0  0  0  0  0  0  0  0  0  0  0
    5.0826   -2.3771    0.0000 H   0  0  0  0  0  0  0  0  0  0  0  0
    6.9750   -0.8315    0.0000 H   0  0  0  0  0  0  0  0  0  0  0  0
    6.9750   -0.0345    0.0000 H   0  0  0  0  0  0  0  0  0  0  0  0
    2.9174   -2.3771    0.0000 H   0  0  0  0  0  0  0  0  0  0  0  0
    3.6077   -2.7756    0.0000 H   0  0  0  0  0  0  0  0  0  0  0  0
  1  7  1  0  0  0  0
  1  8  1  0  0  0  0
  2  3  1  0  0  0  0
  2  4  1  0  0  0  0
  2 15  1  0  0  0  0
  2 16  1  0  0  0  0
  3  5  1  0  0  0  0
  3 17  1  0  0  0  0
  3 18  1  0  0  0  0
  4  6  1  0  0  0  0
  4 19  1  0  0  0  0
  4 20  1  0  0  0  0
  5 11  1  0  0  0  0
  5 21  1  0  0  0  0
  5 22  1  0  0  0  0
  6 12  1  0  0  0  0
  6 23  1  0  0  0  0
  6 24  1  0  0  0  0
  7  9  1  0  0  0  0
  7 25  1  0  0  0  0
  7 26  1  0  0  0  0
  8 10  1  0  0  0  0
  8 27  1  0  0  0  0
  8 28  1  0  0  0  0
  9 13  1  0  0  0  0
  9 29  1  0  0  0  0
  9 30  1  0  0  0  0
 10 14  1  0  0  0  0
 10 31  1  0  0  0  0
 10 32  1  0  0  0  0
 11 13  3  0  0  0  0
 12 14  3  0  0  0  0
M  END
> <PUBCHEM_COMPOUND_CID>
560917

> <PUBCHEM_COMPOUND_CANONICALIZED>
1

> <PUBCHEM_CACTVS_COMPLEXITY>
237

> <PUBCHEM_CACTVS_HBOND_ACCEPTOR>
1

> <PUBCHEM_CACTVS_HBOND_DONOR>
0

> <PUBCHEM_CACTVS_ROTATABLE_BOND>
0

> <PUBCHEM_CACTVS_SUBSKEYS>
AAADceBwIAAAAAAAAAAAAAAAAAAAAAAAAAAAAAAAAAAAAAAAAAAAGgAAAAAACACggAIAAAAABABAEAAAAAgAAAAAAAAAAAAAAAAAAAIAAAACAAAAAAAAAAEAgAAAAAAAAAAAAAAAAAAAAAAAAAAAAAAAAA==

> <PUBCHEM_IUPAC_OPENEYE_NAME>
1-oxacyclotetradeca-4,11-diyne

> <PUBCHEM_IUPAC_CAS_NAME>
1-oxacyclotetradeca-4,11-diyne

> <PUBCHEM_IUPAC_NAME_MARKUP>
1-oxacyclotetradeca-4,11-diyne

> <PUBCHEM_IUPAC_NAME>
1-oxacyclotetradeca-4,11-diyne

> <PUBCHEM_IUPAC_SYSTEMATIC_NAME>
1-oxacyclotetradeca-4,11-diyne

> <PUBCHEM_IUPAC_TRADITIONAL_NAME>
1-oxacyclotetradeca-4,11-diyne

> <PUBCHEM_IUPAC_INCHI>
InChI=1S/C13H18O/c1-2-4-6-8-10-12-14-13-11-9-7-5-3-1/h1-5,10-13H2

> <PUBCHEM_IUPAC_INCHIKEY>
ISEQOSOYOGJYOG-UHFFFAOYSA-N

> <PUBCHEM_XLOGP3_AA>
3.4

> <PUBCHEM_EXACT_MASS>
190.135765193

> <PUBCHEM_MOLECULAR_FORMULA>
C13H18O

> <PUBCHEM_MOLECULAR_WEIGHT>
190.28

> <PUBCHEM_SMILES>
C1CCC#CCCOCCC#CCC1

> <PUBCHEM_CONNECTIVITY_SMILES>
C1CCC#CCCOCCC#CCC1

> <PUBCHEM_CACTVS_TPSA>
9.2

> <PUBCHEM_MONOISOTOPIC_WEIGHT>
190.135765193

> <PUBCHEM_TOTAL_CHARGE>
0

> <PUBCHEM_HEAVY_ATOM_COUNT>
14

> <PUBCHEM_ATOM_DEF_STEREO_COUNT>
0

> <PUBCHEM_ATOM_UDEF_STEREO_COUNT>
0

> <PUBCHEM_BOND_DEF_STEREO_COUNT>
0

> <PUBCHEM_BOND_UDEF_STEREO_COUNT>
0

> <PUBCHEM_ISOTOPIC_ATOM_COUNT>
0

> <PUBCHEM_COMPONENT_COUNT>
1

> <PUBCHEM_CACTVS_TAUTO_COUNT>
-1

> <PUBCHEM_COORDINATE_TYPE>
1
5
255

$$$$
