561394
  -OEChem-05122609492D

 20 20  0     0  0  0  0  0  0999 V2000
    6.1906    1.7321    0.0000 N   0  0  0  0  0  0  0  0  0  0  0  0
    6.1906   -1.7321    0.0000 N   0  0  0  0  0  0  0  0  0  0  0  0
    4.1906    0.0000    0.0000 C   0  0  0  0  0  0  0  0  0  0  0  0
    5.1906    0.0000    0.0000 C   0  0  0  0  0  0  0  0  0  0  0  0
    3.7568   -0.9010    0.0000 C   0  0  0  0  0  0  0  0  0  0  0  0
    3.7568    0.9010    0.0000 C   0  0  0  0  0  0  0  0  0  0  0  0
    2.7818   -1.1235    0.0000 C   0  0  0  0  0  0  0  0  0  0  0  0
    2.7818    1.1235    0.0000 C   0  0  0  0  0  0  0  0  0  0  0  0
    2.0000   -0.5000    0.0000 C   0  0  0  0  0  0  0  0  0  0  0  0
    2.0000    0.5000    0.0000 C   0  0  0  0  0  0  0  0  0  0  0  0
    5.6906    0.8660    0.0000 C   0  0  0  0  0  0  0  0  0  0  0  0
    5.6906   -0.8660    0.0000 C   0  0  0  0  0  0  0  0  0  0  0  0
    4.5205    0.5250    0.0000 H   0  0  0  0  0  0  0  0  0  0  0  0
    4.8806   -0.5369    0.0000 H   0  0  0  0  0  0  0  0  0  0  0  0
    4.1433   -1.3857    0.0000 H   0  0  0  0  0  0  0  0  0  0  0  0
    4.1433    1.3857    0.0000 H   0  0  0  0  0  0  0  0  0  0  0  0
    2.6439   -1.7280    0.0000 H   0  0  0  0  0  0  0  0  0  0  0  0
    2.6439    1.7280    0.0000 H   0  0  0  0  0  0  0  0  0  0  0  0
    1.4414   -0.7690    0.0000 H   0  0  0  0  0  0  0  0  0  0  0  0
    1.4414    0.7690    0.0000 H   0  0  0  0  0  0  0  0  0  0  0  0
  1 11  3  0  0  0  0
  2 12  3  0  0  0  0
  3  4  1  0  0  0  0
  3  5  1  0  0  0  0
  3  6  1  0  0  0  0
  3 13  1  0  0  0  0
  4 11  1  0  0  0  0
  4 12  1  0  0  0  0
  4 14  1  0  0  0  0
  5  7  2  0  0  0  0
  5 15  1  0  0  0  0
  6  8  2  0  0  0  0
  6 16  1  0  0  0  0
  7  9  1  0  0  0  0
  7 17  1  0  0  0  0
  8 10  1  0  0  0  0
  8 18  1  0  0  0  0
  9 10  2  0  0  0  0
  9 19  1  0  0  0  0
 10 20  1  0  0  0  0
M  END
> <PUBCHEM_COMPOUND_CID>
561394

> <PUBCHEM_COMPOUND_CANONICALIZED>
1

> <PUBCHEM_CACTVS_COMPLEXITY>
297

> <PUBCHEM_CACTVS_HBOND_ACCEPTOR>
2

> <PUBCHEM_CACTVS_HBOND_DONOR>
0

> <PUBCHEM_CACTVS_ROTATABLE_BOND>
1

> <PUBCHEM_CACTVS_SUBSKEYS>
AAADccBzAAAAAAAAAAAAAAAAAAAAAAAAAAAAAAAABAAAAAAAAAAAHAAAAAAADQCBAAAAAAAAAACQBCBCAAAAAAAgAAAICAAAAAgIgAAAAQAAAAAAgAAIgAoAAAAIgAAAAAAAAAAAAAAAAAAAAAAAAAAAAA==

> <PUBCHEM_IUPAC_OPENEYE_NAME>
2-cyclohepta-2,4,6-trien-1-ylpropanedinitrile

> <PUBCHEM_IUPAC_CAS_NAME>
2-(1-cyclohepta-2,4,6-trienyl)propanedinitrile

> <PUBCHEM_IUPAC_NAME_MARKUP>
2-cyclohepta-2,4,6-trien-1-ylpropanedinitrile

> <PUBCHEM_IUPAC_NAME>
2-cyclohepta-2,4,6-trien-1-ylpropanedinitrile

> <PUBCHEM_IUPAC_SYSTEMATIC_NAME>
2-cyclohepta-2,4,6-trien-1-ylpropanedinitrile

> <PUBCHEM_IUPAC_TRADITIONAL_NAME>
2-cyclohepta-2,4,6-trien-1-ylmalononitrile

> <PUBCHEM_IUPAC_INCHI>
InChI=1S/C10H8N2/c11-7-10(8-12)9-5-3-1-2-4-6-9/h1-6,9-10H

> <PUBCHEM_IUPAC_INCHIKEY>
WGJPUTUUZWBTKX-UHFFFAOYSA-N

> <PUBCHEM_XLOGP3_AA>
2.1

> <PUBCHEM_EXACT_MASS>
156.068748264

> <PUBCHEM_MOLECULAR_FORMULA>
C10H8N2

> <PUBCHEM_MOLECULAR_WEIGHT>
156.18

> <PUBCHEM_SMILES>
C1=CC=CC(C=C1)C(C#N)C#N

> <PUBCHEM_CONNECTIVITY_SMILES>
C1=CC=CC(C=C1)C(C#N)C#N

> <PUBCHEM_CACTVS_TPSA>
47.6

> <PUBCHEM_MONOISOTOPIC_WEIGHT>
156.068748264

> <PUBCHEM_TOTAL_CHARGE>
0

> <PUBCHEM_HEAVY_ATOM_COUNT>
12

> <PUBCHEM_ATOM_DEF_STEREO_COUNT>
0

> <PUBCHEM_ATOM_UDEF_STEREO_COUNT>
0

> <PUBCHEM_BOND_DEF_STEREO_COUNT>
0

> <PUBCHEM_BOND_UDEF_STEREO_COUNT>
0

> <PUBCHEM_ISOTOPIC_ATOM_COUNT>
0

> <PUBCHEM_COMPONENT_COUNT>
1

> <PUBCHEM_CACTVS_TAUTO_COUNT>
-1

> <PUBCHEM_COORDINATE_TYPE>
1
5
255

$$$$
