561873
  -OEChem-05122609552D

 21 21  0     0  0  0  0  0  0999 V2000
    4.4142    0.9619    0.0000 C   0  0  0  0  0  0  0  0  0  0  0  0
    4.4142   -0.0381    0.0000 C   0  0  0  0  0  0  0  0  0  0  0  0
    3.7071    1.6690    0.0000 C   0  0  0  0  0  0  0  0  0  0  0  0
    3.7071   -0.7452    0.0000 C   0  0  0  0  0  0  0  0  0  0  0  0
    2.7071    1.6690    0.0000 C   0  0  0  0  0  0  0  0  0  0  0  0
    2.7071   -0.7452    0.0000 C   0  0  0  0  0  0  0  0  0  0  0  0
    2.0000    0.9619    0.0000 C   0  0  0  0  0  0  0  0  0  0  0  0
    2.0000   -0.0381    0.0000 C   0  0  0  0  0  0  0  0  0  0  0  0
    4.0898   -1.6690    0.0000 C   0  0  0  0  0  0  0  0  0  0  0  0
    5.0131    0.8015    0.0000 H   0  0  0  0  0  0  0  0  0  0  0  0
    4.7242    1.4989    0.0000 H   0  0  0  0  0  0  0  0  0  0  0  0
    4.7242   -0.5750    0.0000 H   0  0  0  0  0  0  0  0  0  0  0  0
    5.0131    0.1224    0.0000 H   0  0  0  0  0  0  0  0  0  0  0  0
    4.2440    1.9790    0.0000 H   0  0  0  0  0  0  0  0  0  0  0  0
    3.5466    2.2679    0.0000 H   0  0  0  0  0  0  0  0  0  0  0  0
    2.4698    2.2418    0.0000 H   0  0  0  0  0  0  0  0  0  0  0  0
    2.4698   -1.3180    0.0000 H   0  0  0  0  0  0  0  0  0  0  0  0
    1.4272    1.1992    0.0000 H   0  0  0  0  0  0  0  0  0  0  0  0
    1.4272   -0.2753    0.0000 H   0  0  0  0  0  0  0  0  0  0  0  0
    3.7124   -2.1609    0.0000 H   0  0  0  0  0  0  0  0  0  0  0  0
    4.7045   -1.7500    0.0000 H   0  0  0  0  0  0  0  0  0  0  0  0
  1  2  1  0  0  0  0
  1  3  1  0  0  0  0
  1 10  1  0  0  0  0
  1 11  1  0  0  0  0
  2  4  1  0  0  0  0
  2 12  1  0  0  0  0
  2 13  1  0  0  0  0
  3  5  1  0  0  0  0
  3 14  1  0  0  0  0
  3 15  1  0  0  0  0
  4  6  1  0  0  0  0
  4  9  2  0  0  0  0
  5  7  2  3  0  0  0
  5 16  1  0  0  0  0
  6  8  2  3  0  0  0
  6 17  1  0  0  0  0
  7  8  1  0  0  0  0
  7 18  1  0  0  0  0
  8 19  1  0  0  0  0
  9 20  1  0  0  0  0
  9 21  1  0  0  0  0
M  END
> <PUBCHEM_COMPOUND_CID>
561873

> <PUBCHEM_COMPOUND_CANONICALIZED>
1

> <PUBCHEM_CACTVS_COMPLEXITY>
149

> <PUBCHEM_CACTVS_HBOND_ACCEPTOR>
0

> <PUBCHEM_CACTVS_HBOND_DONOR>
0

> <PUBCHEM_CACTVS_ROTATABLE_BOND>
0

> <PUBCHEM_CACTVS_SUBSKEYS>
AAADccBwAAAAAAAAAAAAAAAAAAAAAAAAAAAAAAAAAAAQAAAAAAAAGAAAAAAADACAAAAAAAAAAACAAiBCAAAAAAAgAAAICAAAAAgIAAIAAQAAAAAAgAAIgAMAAAAAAAAAAAAAAAAAAAAAAAAAAAAAAAAAAA==

> <PUBCHEM_IUPAC_OPENEYE_NAME>
5-methylenecycloocta-1,3-diene

> <PUBCHEM_IUPAC_CAS_NAME>
5-methylenecycloocta-1,3-diene

> <PUBCHEM_IUPAC_NAME_MARKUP>
5-methylidenecycloocta-1,3-diene

> <PUBCHEM_IUPAC_NAME>
5-methylidenecycloocta-1,3-diene

> <PUBCHEM_IUPAC_SYSTEMATIC_NAME>
5-methylidenecycloocta-1,3-diene

> <PUBCHEM_IUPAC_TRADITIONAL_NAME>
5-methylenecycloocta-1,3-diene

> <PUBCHEM_IUPAC_INCHI>
InChI=1S/C9H12/c1-9-7-5-3-2-4-6-8-9/h2-3,5,7H,1,4,6,8H2

> <PUBCHEM_IUPAC_INCHIKEY>
MZFUKBSFQUPEFP-UHFFFAOYSA-N

> <PUBCHEM_XLOGP3_AA>
3.1

> <PUBCHEM_EXACT_MASS>
120.093900383

> <PUBCHEM_MOLECULAR_FORMULA>
C9H12

> <PUBCHEM_MOLECULAR_WEIGHT>
120.19

> <PUBCHEM_SMILES>
C=C1CCCC=CC=C1

> <PUBCHEM_CONNECTIVITY_SMILES>
C=C1CCCC=CC=C1

> <PUBCHEM_CACTVS_TPSA>
0

> <PUBCHEM_MONOISOTOPIC_WEIGHT>
120.093900383

> <PUBCHEM_TOTAL_CHARGE>
0

> <PUBCHEM_HEAVY_ATOM_COUNT>
9

> <PUBCHEM_ATOM_DEF_STEREO_COUNT>
0

> <PUBCHEM_ATOM_UDEF_STEREO_COUNT>
0

> <PUBCHEM_BOND_DEF_STEREO_COUNT>
0

> <PUBCHEM_BOND_UDEF_STEREO_COUNT>
2

> <PUBCHEM_ISOTOPIC_ATOM_COUNT>
0

> <PUBCHEM_COMPONENT_COUNT>
1

> <PUBCHEM_CACTVS_TAUTO_COUNT>
-1

> <PUBCHEM_COORDINATE_TYPE>
1
5
255

> <PUBCHEM_BONDANNOTATIONS>
5  7  1
6  8  1

$$$$
