562080
  -OEChem-05122609142D

 38 40  0     1  0  0  0  0  0999 V2000
    3.2601    1.3033    0.0000 O   0  0  0  0  0  0  0  0  0  0  0  0
    5.1569   -0.4568    0.0000 O   0  0  0  0  0  0  0  0  0  0  0  0
    2.0000    0.0432    0.0000 O   0  0  0  0  0  0  0  0  0  0  0  0
    3.7601   -0.2356    0.0000 N   0  0  0  0  0  0  0  0  0  0  0  0
    4.5691    0.3522    0.0000 C   0  0  3  0  0  0  0  0  0  0  0  0
    5.5202    0.6612    0.0000 C   0  0  0  0  0  0  0  0  0  0  0  0
    4.2601    1.3033    0.0000 C   0  0  0  0  0  0  0  0  0  0  0  0
    5.7281    1.6394    0.0000 C   0  0  0  0  0  0  0  0  0  0  0  0
    2.9511    0.3522    0.0000 C   0  0  0  0  0  0  0  0  0  0  0  0
    3.7601   -1.2356    0.0000 C   0  0  0  0  0  0  0  0  0  0  0  0
    6.6791    1.9484    0.0000 C   0  0  0  0  0  0  0  0  0  0  0  0
    2.8940   -1.7356    0.0000 C   0  0  0  0  0  0  0  0  0  0  0  0
    4.6261   -1.7356    0.0000 C   0  0  0  0  0  0  0  0  0  0  0  0
    6.8870    2.9266    0.0000 C   0  0  0  0  0  0  0  0  0  0  0  0
    7.4223    1.2793    0.0000 C   0  0  0  0  0  0  0  0  0  0  0  0
    2.8940   -2.7356    0.0000 C   0  0  0  0  0  0  0  0  0  0  0  0
    4.6261   -2.7356    0.0000 C   0  0  0  0  0  0  0  0  0  0  0  0
    7.8381    3.2356    0.0000 C   0  0  0  0  0  0  0  0  0  0  0  0
    8.3733    1.5883    0.0000 C   0  0  0  0  0  0  0  0  0  0  0  0
    3.7601   -3.2356    0.0000 C   0  0  0  0  0  0  0  0  0  0  0  0
    8.5812    2.5664    0.0000 C   0  0  0  0  0  0  0  0  0  0  0  0
    5.6064    0.0473    0.0000 H   0  0  0  0  0  0  0  0  0  0  0  0
    6.1398    0.6396    0.0000 H   0  0  0  0  0  0  0  0  0  0  0  0
    4.8665    1.4322    0.0000 H   0  0  0  0  0  0  0  0  0  0  0  0
    4.1953    1.9199    0.0000 H   0  0  0  0  0  0  0  0  0  0  0  0
    5.6418    2.2534    0.0000 H   0  0  0  0  0  0  0  0  0  0  0  0
    5.1084    1.6610    0.0000 H   0  0  0  0  0  0  0  0  0  0  0  0
    5.7735   -0.3920    0.0000 H   0  0  0  0  0  0  0  0  0  0  0  0
    2.3571   -1.4256    0.0000 H   0  0  0  0  0  0  0  0  0  0  0  0
    5.1630   -1.4256    0.0000 H   0  0  0  0  0  0  0  0  0  0  0  0
    6.4263    3.3414    0.0000 H   0  0  0  0  0  0  0  0  0  0  0  0
    7.2934    0.6728    0.0000 H   0  0  0  0  0  0  0  0  0  0  0  0
    2.3571   -3.0456    0.0000 H   0  0  0  0  0  0  0  0  0  0  0  0
    5.1630   -3.0456    0.0000 H   0  0  0  0  0  0  0  0  0  0  0  0
    7.9670    3.8420    0.0000 H   0  0  0  0  0  0  0  0  0  0  0  0
    8.8341    1.1734    0.0000 H   0  0  0  0  0  0  0  0  0  0  0  0
    3.7601   -3.8556    0.0000 H   0  0  0  0  0  0  0  0  0  0  0  0
    9.1709    2.7580    0.0000 H   0  0  0  0  0  0  0  0  0  0  0  0
  1  7  1  0  0  0  0
  1  9  1  0  0  0  0
  2  5  1  0  0  0  0
  2 28  1  0  0  0  0
  3  9  2  0  0  0  0
  4  5  1  0  0  0  0
  4  9  1  0  0  0  0
  4 10  1  0  0  0  0
  5  6  1  0  0  0  0
  5  7  1  0  0  0  0
  6  8  1  0  0  0  0
  6 22  1  0  0  0  0
  6 23  1  0  0  0  0
  7 24  1  0  0  0  0
  7 25  1  0  0  0  0
  8 11  1  0  0  0  0
  8 26  1  0  0  0  0
  8 27  1  0  0  0  0
 10 12  2  0  0  0  0
 10 13  1  0  0  0  0
 11 14  2  0  0  0  0
 11 15  1  0  0  0  0
 12 16  1  0  0  0  0
 12 29  1  0  0  0  0
 13 17  2  0  0  0  0
 13 30  1  0  0  0  0
 14 18  1  0  0  0  0
 14 31  1  0  0  0  0
 15 19  2  0  0  0  0
 15 32  1  0  0  0  0
 16 20  2  0  0  0  0
 16 33  1  0  0  0  0
 17 20  1  0  0  0  0
 17 34  1  0  0  0  0
 18 21  2  0  0  0  0
 18 35  1  0  0  0  0
 19 21  1  0  0  0  0
 19 36  1  0  0  0  0
 20 37  1  0  0  0  0
 21 38  1  0  0  0  0
M  END
> <PUBCHEM_COMPOUND_CID>
562080

> <PUBCHEM_COMPOUND_CANONICALIZED>
1

> <PUBCHEM_CACTVS_COMPLEXITY>
361

> <PUBCHEM_CACTVS_HBOND_ACCEPTOR>
3

> <PUBCHEM_CACTVS_HBOND_DONOR>
1

> <PUBCHEM_CACTVS_ROTATABLE_BOND>
4

> <PUBCHEM_CACTVS_SUBSKEYS>
AAADceB6MAAAAAAAAAAAAAAAAAAAAWAAAAAwYAAAAAAAAAABQAAAHgAACAAADAyhmAIwyIMABgCIAiRCWACCAAAhAgAIiAAAZIgLICLAkZGNYAhkhADbyAeQwLAOAAAAAAAAAAAAAAAAAAAAAAAAAAAAAA==

> <PUBCHEM_IUPAC_OPENEYE_NAME>
4-hydroxy-3-phenyl-4-(2-phenylethyl)oxazolidin-2-one

> <PUBCHEM_IUPAC_CAS_NAME>
4-hydroxy-3-phenyl-4-(2-phenylethyl)-2-oxazolidinone

> <PUBCHEM_IUPAC_NAME_MARKUP>
4-hydroxy-3-phenyl-4-(2-phenylethyl)-1,3-oxazolidin-2-one

> <PUBCHEM_IUPAC_NAME>
4-hydroxy-3-phenyl-4-(2-phenylethyl)-1,3-oxazolidin-2-one

> <PUBCHEM_IUPAC_SYSTEMATIC_NAME>
4-oxidanyl-3-phenyl-4-(2-phenylethyl)-1,3-oxazolidin-2-one

> <PUBCHEM_IUPAC_TRADITIONAL_NAME>
4-hydroxy-4-phenethyl-3-phenyl-oxazolidin-2-one

> <PUBCHEM_IUPAC_INCHI>
InChI=1S/C17H17NO3/c19-16-18(15-9-5-2-6-10-15)17(20,13-21-16)12-11-14-7-3-1-4-8-14/h1-10,20H,11-13H2

> <PUBCHEM_IUPAC_INCHIKEY>
GSLCYAWTSDLQNF-UHFFFAOYSA-N

> <PUBCHEM_XLOGP3_AA>
3.1

> <PUBCHEM_EXACT_MASS>
283.12084340

> <PUBCHEM_MOLECULAR_FORMULA>
C17H17NO3

> <PUBCHEM_MOLECULAR_WEIGHT>
283.32

> <PUBCHEM_SMILES>
C1C(N(C(=O)O1)C2=CC=CC=C2)(CCC3=CC=CC=C3)O

> <PUBCHEM_CONNECTIVITY_SMILES>
C1C(N(C(=O)O1)C2=CC=CC=C2)(CCC3=CC=CC=C3)O

> <PUBCHEM_CACTVS_TPSA>
49.8

> <PUBCHEM_MONOISOTOPIC_WEIGHT>
283.12084340

> <PUBCHEM_TOTAL_CHARGE>
0

> <PUBCHEM_HEAVY_ATOM_COUNT>
21

> <PUBCHEM_ATOM_DEF_STEREO_COUNT>
0

> <PUBCHEM_ATOM_UDEF_STEREO_COUNT>
1

> <PUBCHEM_BOND_DEF_STEREO_COUNT>
0

> <PUBCHEM_BOND_UDEF_STEREO_COUNT>
0

> <PUBCHEM_ISOTOPIC_ATOM_COUNT>
0

> <PUBCHEM_COMPONENT_COUNT>
1

> <PUBCHEM_CACTVS_TAUTO_COUNT>
-1

> <PUBCHEM_COORDINATE_TYPE>
1
5
255

> <PUBCHEM_BONDANNOTATIONS>
10  12  8
10  13  8
11  14  8
11  15  8
12  16  8
13  17  8
14  18  8
15  19  8
16  20  8
17  20  8
18  21  8
19  21  8
5  2  3

$$$$
