562543
  -OEChem-05122609532D

 44 47  0     1  0  0  0  0  0999 V2000
    4.5981    1.6830    0.0000 S   0  0  3  0  0  0  0  0  0  0  0  0
    5.4641    2.1830    0.0000 O   0  0  0  0  0  0  0  0  0  0  0  0
    5.4641    0.1830    0.0000 C   0  0  0  0  0  0  0  0  0  0  0  0
    5.9641   -0.6830    0.0000 C   0  0  3  0  0  0  0  0  0  0  0  0
    6.4641    0.1830    0.0000 C   0  0  3  0  0  0  0  0  0  0  0  0
    4.5981    0.6830    0.0000 C   0  0  0  0  0  0  0  0  0  0  0  0
    5.9641   -1.6830    0.0000 C   0  0  0  0  0  0  0  0  0  0  0  0
    7.3301    0.6830    0.0000 C   0  0  0  0  0  0  0  0  0  0  0  0
    5.0981   -2.1830    0.0000 C   0  0  0  0  0  0  0  0  0  0  0  0
    8.1962    0.1830    0.0000 C   0  0  0  0  0  0  0  0  0  0  0  0
    6.8301   -2.1830    0.0000 C   0  0  0  0  0  0  0  0  0  0  0  0
    7.3301    1.6830    0.0000 C   0  0  0  0  0  0  0  0  0  0  0  0
    3.7321    2.1830    0.0000 C   0  0  0  0  0  0  0  0  0  0  0  0
    5.0981   -3.1830    0.0000 C   0  0  0  0  0  0  0  0  0  0  0  0
    9.0622    0.6830    0.0000 C   0  0  0  0  0  0  0  0  0  0  0  0
    6.8301   -3.1830    0.0000 C   0  0  0  0  0  0  0  0  0  0  0  0
    8.1962    2.1830    0.0000 C   0  0  0  0  0  0  0  0  0  0  0  0
    5.9641   -3.6830    0.0000 C   0  0  0  0  0  0  0  0  0  0  0  0
    9.0622    1.6830    0.0000 C   0  0  0  0  0  0  0  0  0  0  0  0
    3.7321    3.1830    0.0000 C   0  0  0  0  0  0  0  0  0  0  0  0
    2.8660    1.6830    0.0000 C   0  0  0  0  0  0  0  0  0  0  0  0
    2.8660    3.6830    0.0000 C   0  0  0  0  0  0  0  0  0  0  0  0
    2.0000    2.1830    0.0000 C   0  0  0  0  0  0  0  0  0  0  0  0
    2.0000    3.1830    0.0000 C   0  0  0  0  0  0  0  0  0  0  0  0
    5.6246    0.7819    0.0000 H   0  0  0  0  0  0  0  0  0  0  0  0
    6.5630   -0.8435    0.0000 H   0  0  0  0  0  0  0  0  0  0  0  0
    6.3036    0.7819    0.0000 H   0  0  0  0  0  0  0  0  0  0  0  0
    3.9875    0.7907    0.0000 H   0  0  0  0  0  0  0  0  0  0  0  0
    4.3860    0.1004    0.0000 H   0  0  0  0  0  0  0  0  0  0  0  0
    4.5611   -1.8730    0.0000 H   0  0  0  0  0  0  0  0  0  0  0  0
    8.1962   -0.4370    0.0000 H   0  0  0  0  0  0  0  0  0  0  0  0
    7.3671   -1.8730    0.0000 H   0  0  0  0  0  0  0  0  0  0  0  0
    6.7932    1.9930    0.0000 H   0  0  0  0  0  0  0  0  0  0  0  0
    4.5611   -3.4930    0.0000 H   0  0  0  0  0  0  0  0  0  0  0  0
    9.5991    0.3730    0.0000 H   0  0  0  0  0  0  0  0  0  0  0  0
    7.3671   -3.4930    0.0000 H   0  0  0  0  0  0  0  0  0  0  0  0
    8.1962    2.8030    0.0000 H   0  0  0  0  0  0  0  0  0  0  0  0
    5.9641   -4.3030    0.0000 H   0  0  0  0  0  0  0  0  0  0  0  0
    9.5991    1.9930    0.0000 H   0  0  0  0  0  0  0  0  0  0  0  0
    4.2690    3.4930    0.0000 H   0  0  0  0  0  0  0  0  0  0  0  0
    2.8660    1.0630    0.0000 H   0  0  0  0  0  0  0  0  0  0  0  0
    2.8660    4.3030    0.0000 H   0  0  0  0  0  0  0  0  0  0  0  0
    1.4631    1.8730    0.0000 H   0  0  0  0  0  0  0  0  0  0  0  0
    1.4631    3.4930    0.0000 H   0  0  0  0  0  0  0  0  0  0  0  0
  1  2  2  0  0  0  0
  1  6  1  0  0  0  0
  1 13  1  0  0  0  0
  3  4  1  0  0  0  0
  3  5  1  0  0  0  0
  3  6  1  0  0  0  0
  3 25  1  0  0  0  0
  4  5  1  0  0  0  0
  4  7  1  0  0  0  0
  4 26  1  0  0  0  0
  5  8  1  0  0  0  0
  5 27  1  0  0  0  0
  6 28  1  0  0  0  0
  6 29  1  0  0  0  0
  7  9  2  0  0  0  0
  7 11  1  0  0  0  0
  8 10  2  0  0  0  0
  8 12  1  0  0  0  0
  9 14  1  0  0  0  0
  9 30  1  0  0  0  0
 10 15  1  0  0  0  0
 10 31  1  0  0  0  0
 11 16  2  0  0  0  0
 11 32  1  0  0  0  0
 12 17  2  0  0  0  0
 12 33  1  0  0  0  0
 13 20  2  0  0  0  0
 13 21  1  0  0  0  0
 14 18  2  0  0  0  0
 14 34  1  0  0  0  0
 15 19  2  0  0  0  0
 15 35  1  0  0  0  0
 16 18  1  0  0  0  0
 16 36  1  0  0  0  0
 17 19  1  0  0  0  0
 17 37  1  0  0  0  0
 18 38  1  0  0  0  0
 19 39  1  0  0  0  0
 20 22  1  0  0  0  0
 20 40  1  0  0  0  0
 21 23  2  0  0  0  0
 21 41  1  0  0  0  0
 22 24  2  0  0  0  0
 22 42  1  0  0  0  0
 23 24  1  0  0  0  0
 23 43  1  0  0  0  0
 24 44  1  0  0  0  0
M  END
> <PUBCHEM_COMPOUND_CID>
562543

> <PUBCHEM_COMPOUND_CANONICALIZED>
1

> <PUBCHEM_CACTVS_COMPLEXITY>
392

> <PUBCHEM_CACTVS_HBOND_ACCEPTOR>
2

> <PUBCHEM_CACTVS_HBOND_DONOR>
0

> <PUBCHEM_CACTVS_ROTATABLE_BOND>
5

> <PUBCHEM_CACTVS_SUBSKEYS>
AAADceB4IABAAAAAAAAAAAAAGAAAAAAAAAAwYMAAAAAAAAABUAAAGAQAAAAADQCEWACwAYAAAAqAAiBCAEBCAAAgCBAIiBgAAIgIICKgERCAIAAggAAoiAcAgMAOgAAAAAAAAAAAAAAAAAAAAAAAAAAAAA==

> <PUBCHEM_IUPAC_OPENEYE_NAME>
[2-(benzenesulfinylmethyl)-3-phenyl-cyclopropyl]benzene

> <PUBCHEM_IUPAC_CAS_NAME>
[2-(benzenesulfinylmethyl)-3-phenylcyclopropyl]benzene

> <PUBCHEM_IUPAC_NAME_MARKUP>
[2-(benzenesulfinylmethyl)-3-phenylcyclopropyl]benzene

> <PUBCHEM_IUPAC_NAME>
[2-(benzenesulfinylmethyl)-3-phenylcyclopropyl]benzene

> <PUBCHEM_IUPAC_SYSTEMATIC_NAME>
[2-phenyl-3-(phenylsulfinylmethyl)cyclopropyl]benzene

> <PUBCHEM_IUPAC_TRADITIONAL_NAME>
[2-(benzenesulfinylmethyl)-3-phenyl-cyclopropyl]benzene

> <PUBCHEM_IUPAC_INCHI>
InChI=1S/C22H20OS/c23-24(19-14-8-3-9-15-19)16-20-21(17-10-4-1-5-11-17)22(20)18-12-6-2-7-13-18/h1-15,20-22H,16H2

> <PUBCHEM_IUPAC_INCHIKEY>
MVULGCSHGFLUBH-UHFFFAOYSA-N

> <PUBCHEM_XLOGP3_AA>
4.5

> <PUBCHEM_EXACT_MASS>
332.12348643

> <PUBCHEM_MOLECULAR_FORMULA>
C22H20OS

> <PUBCHEM_MOLECULAR_WEIGHT>
332.5

> <PUBCHEM_SMILES>
C1=CC=C(C=C1)C2C(C2C3=CC=CC=C3)CS(=O)C4=CC=CC=C4

> <PUBCHEM_CONNECTIVITY_SMILES>
C1=CC=C(C=C1)C2C(C2C3=CC=CC=C3)CS(=O)C4=CC=CC=C4

> <PUBCHEM_CACTVS_TPSA>
36.3

> <PUBCHEM_MONOISOTOPIC_WEIGHT>
332.12348643

> <PUBCHEM_TOTAL_CHARGE>
0

> <PUBCHEM_HEAVY_ATOM_COUNT>
24

> <PUBCHEM_ATOM_DEF_STEREO_COUNT>
0

> <PUBCHEM_ATOM_UDEF_STEREO_COUNT>
3

> <PUBCHEM_BOND_DEF_STEREO_COUNT>
0

> <PUBCHEM_BOND_UDEF_STEREO_COUNT>
0

> <PUBCHEM_ISOTOPIC_ATOM_COUNT>
0

> <PUBCHEM_COMPONENT_COUNT>
1

> <PUBCHEM_CACTVS_TAUTO_COUNT>
-1

> <PUBCHEM_COORDINATE_TYPE>
1
5
255

> <PUBCHEM_BONDANNOTATIONS>
1  6  3
10  15  8
11  16  8
12  17  8
13  20  8
13  21  8
14  18  8
15  19  8
16  18  8
17  19  8
20  22  8
21  23  8
22  24  8
23  24  8
4  7  3
5  8  3
7  11  8
7  9  8
8  10  8
8  12  8
9  14  8

$$$$
