564652
  -OEChem-05122608492D

 32 33  0     1  0  0  0  0  0999 V2000
    3.9437   -0.4699    0.0000 C   0  0  3  0  0  0  0  0  0  0  0  0
    2.9659    1.3447    0.0000 C   0  0  3  0  0  0  0  0  0  0  0  0
    4.2025    0.4961    0.0000 C   0  0  3  0  0  0  0  0  0  0  0  0
    2.5710   -1.0619    0.0000 C   0  0  0  0  0  0  0  0  0  0  0  0
    3.8320    1.8447    0.0000 C   0  0  0  0  0  0  0  0  0  0  0  0
    2.2290   -0.1222    0.0000 C   0  0  0  0  0  0  0  0  0  0  0  0
    5.3427   -0.9787    0.0000 C   0  0  0  0  0  0  0  0  0  0  0  0
    5.6015   -0.0128    0.0000 C   0  0  0  0  0  0  0  0  0  0  0  0
    3.6849   -1.4358    0.0000 C   0  0  0  0  0  0  0  0  0  0  0  0
    2.0000    1.6035    0.0000 C   0  0  0  0  0  0  0  0  0  0  0  0
    5.8427   -1.8447    0.0000 C   0  0  0  0  0  0  0  0  0  0  0  0
    6.4675    0.4872    0.0000 C   0  0  0  0  0  0  0  0  0  0  0  0
    2.8850    1.9594    0.0000 H   0  0  0  0  0  0  0  0  0  0  0  0
    4.1885   -0.1238    0.0000 H   0  0  0  0  0  0  0  0  0  0  0  0
    1.9926   -1.2852    0.0000 H   0  0  0  0  0  0  0  0  0  0  0  0
    2.8055   -1.6358    0.0000 H   0  0  0  0  0  0  0  0  0  0  0  0
    4.4136    2.0592    0.0000 H   0  0  0  0  0  0  0  0  0  0  0  0
    3.5687    2.4061    0.0000 H   0  0  0  0  0  0  0  0  0  0  0  0
    2.0347    0.4666    0.0000 H   0  0  0  0  0  0  0  0  0  0  0  0
    1.6432   -0.3254    0.0000 H   0  0  0  0  0  0  0  0  0  0  0  0
    3.0860   -1.2753    0.0000 H   0  0  0  0  0  0  0  0  0  0  0  0
    3.5244   -2.0347    0.0000 H   0  0  0  0  0  0  0  0  0  0  0  0
    4.2838   -1.5962    0.0000 H   0  0  0  0  0  0  0  0  0  0  0  0
    2.1605    2.2024    0.0000 H   0  0  0  0  0  0  0  0  0  0  0  0
    1.4011    1.7640    0.0000 H   0  0  0  0  0  0  0  0  0  0  0  0
    1.8395    1.0046    0.0000 H   0  0  0  0  0  0  0  0  0  0  0  0
    5.3057   -2.1547    0.0000 H   0  0  0  0  0  0  0  0  0  0  0  0
    6.1527   -2.3816    0.0000 H   0  0  0  0  0  0  0  0  0  0  0  0
    6.3796   -1.5347    0.0000 H   0  0  0  0  0  0  0  0  0  0  0  0
    6.7775   -0.0497    0.0000 H   0  0  0  0  0  0  0  0  0  0  0  0
    7.0044    0.7972    0.0000 H   0  0  0  0  0  0  0  0  0  0  0  0
    6.1575    1.0242    0.0000 H   0  0  0  0  0  0  0  0  0  0  0  0
  1  2  1  0  0  0  0
  1  4  1  0  0  0  0
  1  7  1  0  0  0  0
  1  9  1  0  0  0  0
  2  5  1  0  0  0  0
  2 10  1  0  0  0  0
  2 13  1  0  0  0  0
  3  5  1  0  0  0  0
  3  6  1  0  0  0  0
  3  8  1  0  0  0  0
  3 14  1  0  0  0  0
  4  6  1  0  0  0  0
  4 15  1  0  0  0  0
  4 16  1  0  0  0  0
  5 17  1  0  0  0  0
  5 18  1  0  0  0  0
  6 19  1  0  0  0  0
  6 20  1  0  0  0  0
  7  8  2  0  0  0  0
  7 11  1  0  0  0  0
  8 12  1  0  0  0  0
  9 21  1  0  0  0  0
  9 22  1  0  0  0  0
  9 23  1  0  0  0  0
 10 24  1  0  0  0  0
 10 25  1  0  0  0  0
 10 26  1  0  0  0  0
 11 27  1  0  0  0  0
 11 28  1  0  0  0  0
 11 29  1  0  0  0  0
 12 30  1  0  0  0  0
 12 31  1  0  0  0  0
 12 32  1  0  0  0  0
M  END
> <PUBCHEM_COMPOUND_CID>
564652

> <PUBCHEM_COMPOUND_CANONICALIZED>
1

> <PUBCHEM_CACTVS_COMPLEXITY>
236

> <PUBCHEM_CACTVS_HBOND_ACCEPTOR>
0

> <PUBCHEM_CACTVS_HBOND_DONOR>
0

> <PUBCHEM_CACTVS_ROTATABLE_BOND>
0

> <PUBCHEM_CACTVS_SUBSKEYS>
AAADceBwAAAAAAAAAAAAAAAAAAAAAAAAAAAwQIAAAAAAAAAAAAAAGAAAAAAADwCAAAACAAAAAACAAgBAAAAAAAAgAAAACAAAAAgAAAIAAAAAAAAAgAAIAAMAgMAPgAAAAAAAAACAAAQAACAAAAAAAAAAAA==

> <PUBCHEM_IUPAC_OPENEYE_NAME>
1,2,3,6-tetramethylbicyclo[2.2.2]oct-2-ene

> <PUBCHEM_IUPAC_CAS_NAME>
1,2,3,6-tetramethylbicyclo[2.2.2]oct-2-ene

> <PUBCHEM_IUPAC_NAME_MARKUP>
1,2,3,6-tetramethylbicyclo[2.2.2]oct-2-ene

> <PUBCHEM_IUPAC_NAME>
1,2,3,6-tetramethylbicyclo[2.2.2]oct-2-ene

> <PUBCHEM_IUPAC_SYSTEMATIC_NAME>
1,2,3,6-tetramethylbicyclo[2.2.2]oct-2-ene

> <PUBCHEM_IUPAC_TRADITIONAL_NAME>
1,2,3,6-tetramethylbicyclo[2.2.2]oct-2-ene

> <PUBCHEM_IUPAC_INCHI>
InChI=1S/C12H20/c1-8-7-11-5-6-12(8,4)10(3)9(11)2/h8,11H,5-7H2,1-4H3

> <PUBCHEM_IUPAC_INCHIKEY>
HTNGHDOJIWNQCM-UHFFFAOYSA-N

> <PUBCHEM_XLOGP3_AA>
3.5

> <PUBCHEM_EXACT_MASS>
164.156500638

> <PUBCHEM_MOLECULAR_FORMULA>
C12H20

> <PUBCHEM_MOLECULAR_WEIGHT>
164.29

> <PUBCHEM_SMILES>
CC1CC2CCC1(C(=C2C)C)C

> <PUBCHEM_CONNECTIVITY_SMILES>
CC1CC2CCC1(C(=C2C)C)C

> <PUBCHEM_CACTVS_TPSA>
0

> <PUBCHEM_MONOISOTOPIC_WEIGHT>
164.156500638

> <PUBCHEM_TOTAL_CHARGE>
0

> <PUBCHEM_HEAVY_ATOM_COUNT>
12

> <PUBCHEM_ATOM_DEF_STEREO_COUNT>
0

> <PUBCHEM_ATOM_UDEF_STEREO_COUNT>
3

> <PUBCHEM_BOND_DEF_STEREO_COUNT>
0

> <PUBCHEM_BOND_UDEF_STEREO_COUNT>
0

> <PUBCHEM_ISOTOPIC_ATOM_COUNT>
0

> <PUBCHEM_COMPONENT_COUNT>
1

> <PUBCHEM_CACTVS_TAUTO_COUNT>
-1

> <PUBCHEM_COORDINATE_TYPE>
1
5
255

> <PUBCHEM_BONDANNOTATIONS>
1  9  3
2  10  3
3  6  3

$$$$
