564727
  -OEChem-05122609162D

 29 30  0     1  0  0  0  0  0999 V2000
    3.7320    1.3450    0.0000 O   0  0  0  0  0  0  0  0  0  0  0  0
    4.5981   -1.1550    0.0000 C   0  0  3  0  0  0  0  0  0  0  0  0
    4.5981   -0.1550    0.0000 C   0  0  3  0  0  0  0  0  0  0  0  0
    5.4646   -0.6550    0.0000 C   0  0  0  0  0  0  0  0  0  0  0  0
    3.7320   -1.6550    0.0000 C   0  0  0  0  0  0  0  0  0  0  0  0
    3.7320    0.3450    0.0000 C   0  0  3  0  0  0  0  0  0  0  0  0
    2.8660   -1.1550    0.0000 C   0  0  3  0  0  0  0  0  0  0  0  0
    2.8660   -0.1550    0.0000 C   0  0  0  0  0  0  0  0  0  0  0  0
    5.9646   -1.5210    0.0000 C   0  0  0  0  0  0  0  0  0  0  0  0
    5.9646    0.2110    0.0000 C   0  0  0  0  0  0  0  0  0  0  0  0
    2.0000   -1.6550    0.0000 C   0  0  0  0  0  0  0  0  0  0  0  0
    4.9080   -1.6920    0.0000 H   0  0  0  0  0  0  0  0  0  0  0  0
    4.9080    0.3820    0.0000 H   0  0  0  0  0  0  0  0  0  0  0  0
    3.3335   -2.1300    0.0000 H   0  0  0  0  0  0  0  0  0  0  0  0
    4.1306   -2.1300    0.0000 H   0  0  0  0  0  0  0  0  0  0  0  0
    4.2690    0.6550    0.0000 H   0  0  0  0  0  0  0  0  0  0  0  0
    2.8660   -1.7750    0.0000 H   0  0  0  0  0  0  0  0  0  0  0  0
    2.6540    0.4276    0.0000 H   0  0  0  0  0  0  0  0  0  0  0  0
    2.2554   -0.2627    0.0000 H   0  0  0  0  0  0  0  0  0  0  0  0
    5.4277   -1.8310    0.0000 H   0  0  0  0  0  0  0  0  0  0  0  0
    6.2746   -2.0580    0.0000 H   0  0  0  0  0  0  0  0  0  0  0  0
    6.5016   -1.2110    0.0000 H   0  0  0  0  0  0  0  0  0  0  0  0
    6.5016   -0.0990    0.0000 H   0  0  0  0  0  0  0  0  0  0  0  0
    6.2746    0.7480    0.0000 H   0  0  0  0  0  0  0  0  0  0  0  0
    5.4277    0.5210    0.0000 H   0  0  0  0  0  0  0  0  0  0  0  0
    1.6900   -1.1181    0.0000 H   0  0  0  0  0  0  0  0  0  0  0  0
    1.4631   -1.9650    0.0000 H   0  0  0  0  0  0  0  0  0  0  0  0
    2.3100   -2.1919    0.0000 H   0  0  0  0  0  0  0  0  0  0  0  0
    3.1951    1.6550    0.0000 H   0  0  0  0  0  0  0  0  0  0  0  0
  1  6  1  0  0  0  0
  1 29  1  0  0  0  0
  2  3  1  0  0  0  0
  2  4  1  0  0  0  0
  2  5  1  0  0  0  0
  2 12  1  0  0  0  0
  3  4  1  0  0  0  0
  3  6  1  0  0  0  0
  3 13  1  0  0  0  0
  4  9  1  0  0  0  0
  4 10  1  0  0  0  0
  5  7  1  0  0  0  0
  5 14  1  0  0  0  0
  5 15  1  0  0  0  0
  6  8  1  0  0  0  0
  6 16  1  0  0  0  0
  7  8  1  0  0  0  0
  7 11  1  0  0  0  0
  7 17  1  0  0  0  0
  8 18  1  0  0  0  0
  8 19  1  0  0  0  0
  9 20  1  0  0  0  0
  9 21  1  0  0  0  0
  9 22  1  0  0  0  0
 10 23  1  0  0  0  0
 10 24  1  0  0  0  0
 10 25  1  0  0  0  0
 11 26  1  0  0  0  0
 11 27  1  0  0  0  0
 11 28  1  0  0  0  0
M  END
> <PUBCHEM_COMPOUND_CID>
564727

> <PUBCHEM_COMPOUND_CANONICALIZED>
1

> <PUBCHEM_CACTVS_COMPLEXITY>
174

> <PUBCHEM_CACTVS_HBOND_ACCEPTOR>
1

> <PUBCHEM_CACTVS_HBOND_DONOR>
1

> <PUBCHEM_CACTVS_ROTATABLE_BOND>
0

> <PUBCHEM_CACTVS_SUBSKEYS>
AAADceBwIAAAAAAAAAAAAAAAGAAAAAAAAAAwAAAABgAAAAAAAAAAGgAACAAADxSggAICAAAAAgAAAAAAAAAAAAAAAAAAAAAAAAAAEAIAAAAAQAAEAAAAAAGAwPAPgAAAAAAAAACAAAYAABAAAAAAAAAAAA==

> <PUBCHEM_IUPAC_OPENEYE_NAME>
4,7,7-trimethylnorcaran-2-ol

> <PUBCHEM_IUPAC_CAS_NAME>
4,7,7-trimethyl-2-bicyclo[4.1.0]heptanol

> <PUBCHEM_IUPAC_NAME_MARKUP>
4,7,7-trimethylbicyclo[4.1.0]heptan-2-ol

> <PUBCHEM_IUPAC_NAME>
4,7,7-trimethylbicyclo[4.1.0]heptan-2-ol

> <PUBCHEM_IUPAC_SYSTEMATIC_NAME>
4,7,7-trimethylbicyclo[4.1.0]heptan-2-ol

> <PUBCHEM_IUPAC_TRADITIONAL_NAME>
4,7,7-trimethylnorcaran-2-ol

> <PUBCHEM_IUPAC_INCHI>
InChI=1S/C10H18O/c1-6-4-7-9(8(11)5-6)10(7,2)3/h6-9,11H,4-5H2,1-3H3

> <PUBCHEM_IUPAC_INCHIKEY>
NZERPKAXZIGFLL-UHFFFAOYSA-N

> <PUBCHEM_XLOGP3_AA>
2.6

> <PUBCHEM_EXACT_MASS>
154.135765193

> <PUBCHEM_MOLECULAR_FORMULA>
C10H18O

> <PUBCHEM_MOLECULAR_WEIGHT>
154.25

> <PUBCHEM_SMILES>
CC1CC2C(C2(C)C)C(C1)O

> <PUBCHEM_CONNECTIVITY_SMILES>
CC1CC2C(C2(C)C)C(C1)O

> <PUBCHEM_CACTVS_TPSA>
20.2

> <PUBCHEM_MONOISOTOPIC_WEIGHT>
154.135765193

> <PUBCHEM_TOTAL_CHARGE>
0

> <PUBCHEM_HEAVY_ATOM_COUNT>
11

> <PUBCHEM_ATOM_DEF_STEREO_COUNT>
0

> <PUBCHEM_ATOM_UDEF_STEREO_COUNT>
4

> <PUBCHEM_BOND_DEF_STEREO_COUNT>
0

> <PUBCHEM_BOND_UDEF_STEREO_COUNT>
0

> <PUBCHEM_ISOTOPIC_ATOM_COUNT>
0

> <PUBCHEM_COMPONENT_COUNT>
1

> <PUBCHEM_CACTVS_TAUTO_COUNT>
-1

> <PUBCHEM_COORDINATE_TYPE>
1
5
255

> <PUBCHEM_BONDANNOTATIONS>
6  1  3
2  5  3
3  4  3
7  11  3

$$$$
