568818
  -OEChem-05122609592D

 20 21  0     1  0  0  0  0  0999 V2000
    3.3271    2.7071    0.0000 O   0  0  0  0  0  0  0  0  0  0  0  0
    2.6200    1.0000    0.0000 N   0  0  0  0  0  0  0  0  0  0  0  0
    3.3271    0.2929    0.0000 C   0  0  3  0  0  0  0  0  0  0  0  0
    4.0342    1.0000    0.0000 C   0  0  0  0  0  0  0  0  0  0  0  0
    3.3271   -0.7071    0.0000 C   0  0  0  0  0  0  0  0  0  0  0  0
    3.3271    1.7071    0.0000 C   0  0  0  0  0  0  0  0  0  0  0  0
    2.4611   -1.2071    0.0000 C   0  0  0  0  0  0  0  0  0  0  0  0
    4.1931   -1.2071    0.0000 C   0  0  0  0  0  0  0  0  0  0  0  0
    2.4611   -2.2071    0.0000 C   0  0  0  0  0  0  0  0  0  0  0  0
    4.1931   -2.2071    0.0000 C   0  0  0  0  0  0  0  0  0  0  0  0
    3.3271   -2.7071    0.0000 C   0  0  0  0  0  0  0  0  0  0  0  0
    3.8999    0.0556    0.0000 H   0  0  0  0  0  0  0  0  0  0  0  0
    4.4726    0.5616    0.0000 H   0  0  0  0  0  0  0  0  0  0  0  0
    4.4726    1.4384    0.0000 H   0  0  0  0  0  0  0  0  0  0  0  0
    2.0000    1.0000    0.0000 H   0  0  0  0  0  0  0  0  0  0  0  0
    1.9242   -0.8971    0.0000 H   0  0  0  0  0  0  0  0  0  0  0  0
    4.7301   -0.8971    0.0000 H   0  0  0  0  0  0  0  0  0  0  0  0
    1.9242   -2.5171    0.0000 H   0  0  0  0  0  0  0  0  0  0  0  0
    4.7301   -2.5171    0.0000 H   0  0  0  0  0  0  0  0  0  0  0  0
    3.3271   -3.3271    0.0000 H   0  0  0  0  0  0  0  0  0  0  0  0
  1  6  2  0  0  0  0
  2  3  1  0  0  0  0
  2  6  1  0  0  0  0
  2 15  1  0  0  0  0
  3  4  1  0  0  0  0
  3  5  1  0  0  0  0
  3 12  1  0  0  0  0
  4  6  1  0  0  0  0
  4 13  1  0  0  0  0
  4 14  1  0  0  0  0
  5  7  2  0  0  0  0
  5  8  1  0  0  0  0
  7  9  1  0  0  0  0
  7 16  1  0  0  0  0
  8 10  2  0  0  0  0
  8 17  1  0  0  0  0
  9 11  2  0  0  0  0
  9 18  1  0  0  0  0
 10 11  1  0  0  0  0
 10 19  1  0  0  0  0
 11 20  1  0  0  0  0
M  END
> <PUBCHEM_COMPOUND_CID>
568818

> <PUBCHEM_COMPOUND_CANONICALIZED>
1

> <PUBCHEM_CACTVS_COMPLEXITY>
161

> <PUBCHEM_CACTVS_HBOND_ACCEPTOR>
1

> <PUBCHEM_CACTVS_HBOND_DONOR>
1

> <PUBCHEM_CACTVS_ROTATABLE_BOND>
1

> <PUBCHEM_CACTVS_SUBSKEYS>
AAADccByIAAAAAAAAAAAAAAAAABYAAAAAAAwAAAAAAAAAAABAAAAHgAQAAAADCjBmAQwAILAAACIAiFSEACCAAAgAAAIiIEIBIgIIDqAkRGEIAhglgCIiAcYiICOAAAAAAAAAAAAAAAAAAAAAAAAAAAAAA==

> <PUBCHEM_IUPAC_OPENEYE_NAME>
4-phenylazetidin-2-one

> <PUBCHEM_IUPAC_CAS_NAME>
4-phenyl-2-azetidinone

> <PUBCHEM_IUPAC_NAME_MARKUP>
4-phenylazetidin-2-one

> <PUBCHEM_IUPAC_NAME>
4-phenylazetidin-2-one

> <PUBCHEM_IUPAC_SYSTEMATIC_NAME>
4-phenylazetidin-2-one

> <PUBCHEM_IUPAC_TRADITIONAL_NAME>
4-phenylazetidin-2-one

> <PUBCHEM_IUPAC_INCHI>
InChI=1S/C9H9NO/c11-9-6-8(10-9)7-4-2-1-3-5-7/h1-5,8H,6H2,(H,10,11)

> <PUBCHEM_IUPAC_INCHIKEY>
MWKMQPSNTJCASD-UHFFFAOYSA-N

> <PUBCHEM_XLOGP3_AA>
0.8

> <PUBCHEM_EXACT_MASS>
147.068413911

> <PUBCHEM_MOLECULAR_FORMULA>
C9H9NO

> <PUBCHEM_MOLECULAR_WEIGHT>
147.17

> <PUBCHEM_SMILES>
C1C(NC1=O)C2=CC=CC=C2

> <PUBCHEM_CONNECTIVITY_SMILES>
C1C(NC1=O)C2=CC=CC=C2

> <PUBCHEM_CACTVS_TPSA>
29.1

> <PUBCHEM_MONOISOTOPIC_WEIGHT>
147.068413911

> <PUBCHEM_TOTAL_CHARGE>
0

> <PUBCHEM_HEAVY_ATOM_COUNT>
11

> <PUBCHEM_ATOM_DEF_STEREO_COUNT>
0

> <PUBCHEM_ATOM_UDEF_STEREO_COUNT>
1

> <PUBCHEM_BOND_DEF_STEREO_COUNT>
0

> <PUBCHEM_BOND_UDEF_STEREO_COUNT>
0

> <PUBCHEM_ISOTOPIC_ATOM_COUNT>
0

> <PUBCHEM_COMPONENT_COUNT>
1

> <PUBCHEM_CACTVS_TAUTO_COUNT>
-1

> <PUBCHEM_COORDINATE_TYPE>
1
5
255

> <PUBCHEM_BONDANNOTATIONS>
10  11  8
3  5  3
5  7  8
5  8  8
7  9  8
8  10  8
9  11  8

$$$$
