5702612
  -OEChem-05122609572D

 69 68  0     1  0  0  0  0  0999 V2000
    7.1962    1.6550    0.0000 O   0  0  0  0  0  0  0  0  0  0  0  0
    5.4641   -1.3450    0.0000 O   0  0  0  0  0  0  0  0  0  0  0  0
    4.5981   -0.8450    0.0000 O   0  0  0  0  0  0  0  0  0  0  0  0
    5.4641    0.6550    0.0000 N   0  0  0  0  0  0  0  0  0  0  0  0
   14.1244    0.6550    0.0000 C   0  0  0  0  0  0  0  0  0  0  0  0
   14.9904    0.1550    0.0000 C   0  0  0  0  0  0  0  0  0  0  0  0
   13.2583    0.1550    0.0000 C   0  0  0  0  0  0  0  0  0  0  0  0
   15.8564    0.6550    0.0000 C   0  0  0  0  0  0  0  0  0  0  0  0
   12.3923    0.6550    0.0000 C   0  0  0  0  0  0  0  0  0  0  0  0
   16.7224    0.1550    0.0000 C   0  0  0  0  0  0  0  0  0  0  0  0
   11.5263    0.1550    0.0000 C   0  0  0  0  0  0  0  0  0  0  0  0
   17.5885    0.6550    0.0000 C   0  0  0  0  0  0  0  0  0  0  0  0
   10.6603    0.6550    0.0000 C   0  0  0  0  0  0  0  0  0  0  0  0
   18.4545    0.1550    0.0000 C   0  0  0  0  0  0  0  0  0  0  0  0
    9.7942    0.1550    0.0000 C   0  0  0  0  0  0  0  0  0  0  0  0
   19.3205    0.6550    0.0000 C   0  0  0  0  0  0  0  0  0  0  0  0
    6.3301    0.1550    0.0000 C   0  0  2  0  0  0  0  0  0  0  0  0
    7.1962    0.6550    0.0000 C   0  0  1  0  0  0  0  0  0  0  0  0
    8.9282    0.6550    0.0000 C   0  0  0  0  0  0  0  0  0  0  0  0
    8.0622    0.1550    0.0000 C   0  0  0  0  0  0  0  0  0  0  0  0
    6.3301   -0.8450    0.0000 C   0  0  0  0  0  0  0  0  0  0  0  0
   20.1865    0.1550    0.0000 C   0  0  0  0  0  0  0  0  0  0  0  0
    4.5981    0.1550    0.0000 C   0  0  0  0  0  0  0  0  0  0  0  0
    3.7321    0.6550    0.0000 C   0  0  0  0  0  0  0  0  0  0  0  0
    2.8660    0.1550    0.0000 C   0  0  0  0  0  0  0  0  0  0  0  0
    2.0000    0.6550    0.0000 C   0  0  0  0  0  0  0  0  0  0  0  0
   14.5229    1.1300    0.0000 H   0  0  0  0  0  0  0  0  0  0  0  0
   13.7258    1.1300    0.0000 H   0  0  0  0  0  0  0  0  0  0  0  0
   14.5919   -0.3199    0.0000 H   0  0  0  0  0  0  0  0  0  0  0  0
   15.3889   -0.3199    0.0000 H   0  0  0  0  0  0  0  0  0  0  0  0
   12.8598   -0.3199    0.0000 H   0  0  0  0  0  0  0  0  0  0  0  0
   13.6569   -0.3199    0.0000 H   0  0  0  0  0  0  0  0  0  0  0  0
   16.2549    1.1300    0.0000 H   0  0  0  0  0  0  0  0  0  0  0  0
   15.4579    1.1300    0.0000 H   0  0  0  0  0  0  0  0  0  0  0  0
   12.7908    1.1300    0.0000 H   0  0  0  0  0  0  0  0  0  0  0  0
   11.9938    1.1300    0.0000 H   0  0  0  0  0  0  0  0  0  0  0  0
   16.3239   -0.3199    0.0000 H   0  0  0  0  0  0  0  0  0  0  0  0
   17.1210   -0.3199    0.0000 H   0  0  0  0  0  0  0  0  0  0  0  0
   11.1278   -0.3199    0.0000 H   0  0  0  0  0  0  0  0  0  0  0  0
   11.9248   -0.3199    0.0000 H   0  0  0  0  0  0  0  0  0  0  0  0
   17.9870    1.1300    0.0000 H   0  0  0  0  0  0  0  0  0  0  0  0
   17.1899    1.1300    0.0000 H   0  0  0  0  0  0  0  0  0  0  0  0
   11.0588    1.1300    0.0000 H   0  0  0  0  0  0  0  0  0  0  0  0
   10.2617    1.1300    0.0000 H   0  0  0  0  0  0  0  0  0  0  0  0
   18.0560   -0.3199    0.0000 H   0  0  0  0  0  0  0  0  0  0  0  0
   18.8530   -0.3199    0.0000 H   0  0  0  0  0  0  0  0  0  0  0  0
    9.3957   -0.3199    0.0000 H   0  0  0  0  0  0  0  0  0  0  0  0
   10.1928   -0.3199    0.0000 H   0  0  0  0  0  0  0  0  0  0  0  0
   19.7190    1.1300    0.0000 H   0  0  0  0  0  0  0  0  0  0  0  0
   18.9220    1.1300    0.0000 H   0  0  0  0  0  0  0  0  0  0  0  0
    5.7932   -0.1550    0.0000 H   0  0  0  0  0  0  0  0  0  0  0  0
    6.6592    0.9650    0.0000 H   0  0  0  0  0  0  0  0  0  0  0  0
    8.9282    1.2750    0.0000 H   0  0  0  0  0  0  0  0  0  0  0  0
    8.0622   -0.4650    0.0000 H   0  0  0  0  0  0  0  0  0  0  0  0
    6.5422   -1.4276    0.0000 H   0  0  0  0  0  0  0  0  0  0  0  0
    6.9407   -0.7373    0.0000 H   0  0  0  0  0  0  0  0  0  0  0  0
   19.8765   -0.3819    0.0000 H   0  0  0  0  0  0  0  0  0  0  0  0
   20.7235   -0.1550    0.0000 H   0  0  0  0  0  0  0  0  0  0  0  0
   20.4965    0.6919    0.0000 H   0  0  0  0  0  0  0  0  0  0  0  0
    5.4641    1.2750    0.0000 H   0  0  0  0  0  0  0  0  0  0  0  0
    4.1306    1.1300    0.0000 H   0  0  0  0  0  0  0  0  0  0  0  0
    3.3335    1.1300    0.0000 H   0  0  0  0  0  0  0  0  0  0  0  0
    7.7331    1.9650    0.0000 H   0  0  0  0  0  0  0  0  0  0  0  0
    2.4675   -0.3199    0.0000 H   0  0  0  0  0  0  0  0  0  0  0  0
    3.2646   -0.3199    0.0000 H   0  0  0  0  0  0  0  0  0  0  0  0
    5.4641   -1.9650    0.0000 H   0  0  0  0  0  0  0  0  0  0  0  0
    2.3100    1.1919    0.0000 H   0  0  0  0  0  0  0  0  0  0  0  0
    1.4631    0.9650    0.0000 H   0  0  0  0  0  0  0  0  0  0  0  0
    1.6900    0.1181    0.0000 H   0  0  0  0  0  0  0  0  0  0  0  0
 18  1  1  6  0  0  0
  1 63  1  0  0  0  0
  2 21  1  0  0  0  0
  2 66  1  0  0  0  0
  3 23  2  0  0  0  0
 17  4  1  6  0  0  0
  4 23  1  0  0  0  0
  4 60  1  0  0  0  0
  5  6  1  0  0  0  0
  5  7  1  0  0  0  0
  5 27  1  0  0  0  0
  5 28  1  0  0  0  0
  6  8  1  0  0  0  0
  6 29  1  0  0  0  0
  6 30  1  0  0  0  0
  7  9  1  0  0  0  0
  7 31  1  0  0  0  0
  7 32  1  0  0  0  0
  8 10  1  0  0  0  0
  8 33  1  0  0  0  0
  8 34  1  0  0  0  0
  9 11  1  0  0  0  0
  9 35  1  0  0  0  0
  9 36  1  0  0  0  0
 10 12  1  0  0  0  0
 10 37  1  0  0  0  0
 10 38  1  0  0  0  0
 11 13  1  0  0  0  0
 11 39  1  0  0  0  0
 11 40  1  0  0  0  0
 12 14  1  0  0  0  0
 12 41  1  0  0  0  0
 12 42  1  0  0  0  0
 13 15  1  0  0  0  0
 13 43  1  0  0  0  0
 13 44  1  0  0  0  0
 14 16  1  0  0  0  0
 14 45  1  0  0  0  0
 14 46  1  0  0  0  0
 15 19  1  0  0  0  0
 15 47  1  0  0  0  0
 15 48  1  0  0  0  0
 16 22  1  0  0  0  0
 16 49  1  0  0  0  0
 16 50  1  0  0  0  0
 17 18  1  0  0  0  0
 17 21  1  0  0  0  0
 17 51  1  0  0  0  0
 18 20  1  0  0  0  0
 18 52  1  0  0  0  0
 19 20  2  0  0  0  0
 19 53  1  0  0  0  0
 20 54  1  0  0  0  0
 21 55  1  0  0  0  0
 21 56  1  0  0  0  0
 22 57  1  0  0  0  0
 22 58  1  0  0  0  0
 22 59  1  0  0  0  0
 23 24  1  0  0  0  0
 24 25  1  0  0  0  0
 24 61  1  0  0  0  0
 24 62  1  0  0  0  0
 25 26  1  0  0  0  0
 25 64  1  0  0  0  0
 25 65  1  0  0  0  0
 26 67  1  0  0  0  0
 26 68  1  0  0  0  0
 26 69  1  0  0  0  0
M  END
> <PUBCHEM_COMPOUND_CID>
5702612

> <PUBCHEM_COMPOUND_CANONICALIZED>
1

> <PUBCHEM_CACTVS_COMPLEXITY>
344

> <PUBCHEM_CACTVS_HBOND_ACCEPTOR>
3

> <PUBCHEM_CACTVS_HBOND_DONOR>
3

> <PUBCHEM_CACTVS_ROTATABLE_BOND>
18

> <PUBCHEM_CACTVS_SUBSKEYS>
AAADcfB6MAAAAAAAAAAAAAAAAAAAAAAAAAAAAAAAAAAAAAAAAAAAHgAQCAAACDzhgAYCAALAAgCIACFSEAAAAAAgAAAICIEIAAgCFBIAgQAEUAAFlgCYEAMAgIAAAAAAAAAAAAAAAAAAAAAAAAAAAAAAAA==

> <PUBCHEM_IUPAC_OPENEYE_NAME>
N-[(E,1S,2R)-2-hydroxy-1-(hydroxymethyl)heptadec-3-enyl]butanamide

> <PUBCHEM_IUPAC_CAS_NAME>
N-[(E,2S,3R)-1,3-dihydroxyoctadec-4-en-2-yl]butanamide

> <PUBCHEM_IUPAC_NAME_MARKUP>
<I>N</I>-[(<I>E</I>,2<I>S</I>,3<I>R</I>)-1,3-dihydroxyoctadec-4-en-2-yl]butanamide

> <PUBCHEM_IUPAC_NAME>
N-[(E,2S,3R)-1,3-dihydroxyoctadec-4-en-2-yl]butanamide

> <PUBCHEM_IUPAC_SYSTEMATIC_NAME>
N-[(E,2S,3R)-1,3-bis(oxidanyl)octadec-4-en-2-yl]butanamide

> <PUBCHEM_IUPAC_TRADITIONAL_NAME>
N-[(E,1S,2R)-2-hydroxy-1-methylol-heptadec-3-enyl]butyramide

> <PUBCHEM_IUPAC_INCHI>
InChI=1S/C22H43NO3/c1-3-5-6-7-8-9-10-11-12-13-14-15-16-18-21(25)20(19-24)23-22(26)17-4-2/h16,18,20-21,24-25H,3-15,17,19H2,1-2H3,(H,23,26)/b18-16+/t20-,21+/m0/s1

> <PUBCHEM_IUPAC_INCHIKEY>
UCBLGIBMIAFISC-CQLAPORSSA-N

> <PUBCHEM_XLOGP3_AA>
6.4

> <PUBCHEM_EXACT_MASS>
369.32429423

> <PUBCHEM_MOLECULAR_FORMULA>
C22H43NO3

> <PUBCHEM_MOLECULAR_WEIGHT>
369.6

> <PUBCHEM_SMILES>
CCCCCCCCCCCCC/C=C/[C@H]([C@H](CO)NC(=O)CCC)O

> <PUBCHEM_CONNECTIVITY_SMILES>
CCCCCCCCCCCCCC=CC(C(CO)NC(=O)CCC)O

> <PUBCHEM_CACTVS_TPSA>
69.6

> <PUBCHEM_MONOISOTOPIC_WEIGHT>
369.32429423

> <PUBCHEM_TOTAL_CHARGE>
0

> <PUBCHEM_HEAVY_ATOM_COUNT>
26

> <PUBCHEM_ATOM_DEF_STEREO_COUNT>
2

> <PUBCHEM_ATOM_UDEF_STEREO_COUNT>
0

> <PUBCHEM_BOND_DEF_STEREO_COUNT>
1

> <PUBCHEM_BOND_UDEF_STEREO_COUNT>
0

> <PUBCHEM_ISOTOPIC_ATOM_COUNT>
0

> <PUBCHEM_COMPONENT_COUNT>
1

> <PUBCHEM_CACTVS_TAUTO_COUNT>
-1

> <PUBCHEM_COORDINATE_TYPE>
1
5
255

> <PUBCHEM_BONDANNOTATIONS>
18  1  6
17  4  6

$$$$
