572066
  -OEChem-05122608512D

 31 31  0     1  0  0  0  0  0999 V2000
    2.0000    0.7500    0.0000 O   0  0  0  0  0  0  0  0  0  0  0  0
    3.7321    1.7500    0.0000 C   0  0  0  0  0  0  0  0  0  0  0  0
    3.7321    0.7500    0.0000 C   0  0  0  0  0  0  0  0  0  0  0  0
    2.8660    0.2500    0.0000 C   0  0  3  0  0  0  0  0  0  0  0  0
    3.7321    2.7500    0.0000 C   0  0  0  0  0  0  0  0  0  0  0  0
    4.7321    1.7500    0.0000 C   0  0  0  0  0  0  0  0  0  0  0  0
    2.7321    1.7500    0.0000 C   0  0  0  0  0  0  0  0  0  0  0  0
    2.8660   -0.7500    0.0000 C   0  0  0  0  0  0  0  0  0  0  0  0
    2.0000   -1.2500    0.0000 C   0  0  0  0  0  0  0  0  0  0  0  0
    3.7321   -1.2500    0.0000 C   0  0  0  0  0  0  0  0  0  0  0  0
    2.0000   -2.2500    0.0000 C   0  0  0  0  0  0  0  0  0  0  0  0
    3.7321   -2.2500    0.0000 C   0  0  0  0  0  0  0  0  0  0  0  0
    2.8660   -2.7500    0.0000 C   0  0  0  0  0  0  0  0  0  0  0  0
    3.9441    0.1674    0.0000 H   0  0  0  0  0  0  0  0  0  0  0  0
    4.3426    0.8577    0.0000 H   0  0  0  0  0  0  0  0  0  0  0  0
    2.8660    0.8700    0.0000 H   0  0  0  0  0  0  0  0  0  0  0  0
    4.3521    2.7500    0.0000 H   0  0  0  0  0  0  0  0  0  0  0  0
    3.7321    3.3700    0.0000 H   0  0  0  0  0  0  0  0  0  0  0  0
    3.1121    2.7500    0.0000 H   0  0  0  0  0  0  0  0  0  0  0  0
    4.7321    1.1300    0.0000 H   0  0  0  0  0  0  0  0  0  0  0  0
    5.3521    1.7500    0.0000 H   0  0  0  0  0  0  0  0  0  0  0  0
    4.7321    2.3700    0.0000 H   0  0  0  0  0  0  0  0  0  0  0  0
    2.7321    2.3700    0.0000 H   0  0  0  0  0  0  0  0  0  0  0  0
    2.1121    1.7500    0.0000 H   0  0  0  0  0  0  0  0  0  0  0  0
    2.7321    1.1300    0.0000 H   0  0  0  0  0  0  0  0  0  0  0  0
    2.0000    1.3700    0.0000 H   0  0  0  0  0  0  0  0  0  0  0  0
    1.4631   -0.9400    0.0000 H   0  0  0  0  0  0  0  0  0  0  0  0
    4.2690   -0.9400    0.0000 H   0  0  0  0  0  0  0  0  0  0  0  0
    1.4631   -2.5600    0.0000 H   0  0  0  0  0  0  0  0  0  0  0  0
    4.2690   -2.5600    0.0000 H   0  0  0  0  0  0  0  0  0  0  0  0
    2.8660   -3.3700    0.0000 H   0  0  0  0  0  0  0  0  0  0  0  0
  1  4  1  0  0  0  0
  1 26  1  0  0  0  0
  2  3  1  0  0  0  0
  2  5  1  0  0  0  0
  2  6  1  0  0  0  0
  2  7  1  0  0  0  0
  3  4  1  0  0  0  0
  3 14  1  0  0  0  0
  3 15  1  0  0  0  0
  4  8  1  0  0  0  0
  4 16  1  0  0  0  0
  5 17  1  0  0  0  0
  5 18  1  0  0  0  0
  5 19  1  0  0  0  0
  6 20  1  0  0  0  0
  6 21  1  0  0  0  0
  6 22  1  0  0  0  0
  7 23  1  0  0  0  0
  7 24  1  0  0  0  0
  7 25  1  0  0  0  0
  8  9  2  0  0  0  0
  8 10  1  0  0  0  0
  9 11  1  0  0  0  0
  9 27  1  0  0  0  0
 10 12  2  0  0  0  0
 10 28  1  0  0  0  0
 11 13  2  0  0  0  0
 11 29  1  0  0  0  0
 12 13  1  0  0  0  0
 12 30  1  0  0  0  0
 13 31  1  0  0  0  0
M  END
> <PUBCHEM_COMPOUND_CID>
572066

> <PUBCHEM_COMPOUND_CANONICALIZED>
1

> <PUBCHEM_CACTVS_COMPLEXITY>
140

> <PUBCHEM_CACTVS_HBOND_ACCEPTOR>
1

> <PUBCHEM_CACTVS_HBOND_DONOR>
1

> <PUBCHEM_CACTVS_ROTATABLE_BOND>
3

> <PUBCHEM_CACTVS_SUBSKEYS>
AAADceBwIAAAAAAAAAAAAAAAAAAAAAAAAAAwAAAAAAAAAAABAAAAGgAACAAADhSgmAIyAIAAAgCAAiBCAAACAAAgAAAIiAAACIgINiKAERCAcAAkwAEImAeAwOAPAAAAAAAAAAAAAAAAAAAAAAAAAAAAAA==

> <PUBCHEM_IUPAC_OPENEYE_NAME>
3,3-dimethyl-1-phenyl-butan-1-ol

> <PUBCHEM_IUPAC_CAS_NAME>
3,3-dimethyl-1-phenyl-1-butanol

> <PUBCHEM_IUPAC_NAME_MARKUP>
3,3-dimethyl-1-phenylbutan-1-ol

> <PUBCHEM_IUPAC_NAME>
3,3-dimethyl-1-phenylbutan-1-ol

> <PUBCHEM_IUPAC_SYSTEMATIC_NAME>
3,3-dimethyl-1-phenyl-butan-1-ol

> <PUBCHEM_IUPAC_TRADITIONAL_NAME>
3,3-dimethyl-1-phenyl-butan-1-ol

> <PUBCHEM_IUPAC_INCHI>
InChI=1S/C12H18O/c1-12(2,3)9-11(13)10-7-5-4-6-8-10/h4-8,11,13H,9H2,1-3H3

> <PUBCHEM_IUPAC_INCHIKEY>
PCWKVEYADSGEHI-UHFFFAOYSA-N

> <PUBCHEM_XLOGP3_AA>
3.2

> <PUBCHEM_EXACT_MASS>
178.135765193

> <PUBCHEM_MOLECULAR_FORMULA>
C12H18O

> <PUBCHEM_MOLECULAR_WEIGHT>
178.27

> <PUBCHEM_SMILES>
CC(C)(C)CC(C1=CC=CC=C1)O

> <PUBCHEM_CONNECTIVITY_SMILES>
CC(C)(C)CC(C1=CC=CC=C1)O

> <PUBCHEM_CACTVS_TPSA>
20.2

> <PUBCHEM_MONOISOTOPIC_WEIGHT>
178.135765193

> <PUBCHEM_TOTAL_CHARGE>
0

> <PUBCHEM_HEAVY_ATOM_COUNT>
13

> <PUBCHEM_ATOM_DEF_STEREO_COUNT>
0

> <PUBCHEM_ATOM_UDEF_STEREO_COUNT>
1

> <PUBCHEM_BOND_DEF_STEREO_COUNT>
0

> <PUBCHEM_BOND_UDEF_STEREO_COUNT>
0

> <PUBCHEM_ISOTOPIC_ATOM_COUNT>
0

> <PUBCHEM_COMPONENT_COUNT>
1

> <PUBCHEM_CACTVS_TAUTO_COUNT>
-1

> <PUBCHEM_COORDINATE_TYPE>
1
5
255

> <PUBCHEM_BONDANNOTATIONS>
4  1  3
10  12  8
11  13  8
12  13  8
8  10  8
8  9  8
9  11  8

$$$$
