572377
  -OEChem-05122609152D

 28 29  0     1  0  0  0  0  0999 V2000
    3.7320   -1.5173    0.0000 Cl  0  0  0  0  0  0  0  0  0  0  0  0
    5.4641   -1.5173    0.0000 Cl  0  0  0  0  0  0  0  0  0  0  0  0
    2.0000    1.4827    0.0000 O   0  0  0  0  0  0  0  0  0  0  0  0
    4.5981   -0.0173    0.0000 C   0  0  3  0  0  0  0  0  0  0  0  0
    5.4920   -0.5520    0.0000 C   0  0  0  0  0  0  0  0  0  0  0  0
    4.5981    0.9827    0.0000 C   0  0  0  0  0  0  0  0  0  0  0  0
    3.7320   -0.5173    0.0000 C   0  0  0  0  0  0  0  0  0  0  0  0
    6.3981   -0.0381    0.0000 C   0  0  0  0  0  0  0  0  0  0  0  0
    5.4920    1.5173    0.0000 C   0  0  0  0  0  0  0  0  0  0  0  0
    6.3981    1.0035    0.0000 C   0  0  0  0  0  0  0  0  0  0  0  0
    4.5981   -1.0173    0.0000 C   0  0  0  0  0  0  0  0  0  0  0  0
    2.8660   -0.0173    0.0000 C   0  0  0  0  0  0  0  0  0  0  0  0
    3.7320    1.4827    0.0000 C   0  0  0  0  0  0  0  0  0  0  0  0
    2.8660    0.9827    0.0000 C   0  0  0  0  0  0  0  0  0  0  0  0
    5.0874   -1.0218    0.0000 H   0  0  0  0  0  0  0  0  0  0  0  0
    5.8856   -1.0310    0.0000 H   0  0  0  0  0  0  0  0  0  0  0  0
    3.3335   -0.9923    0.0000 H   0  0  0  0  0  0  0  0  0  0  0  0
    4.1306   -0.9923    0.0000 H   0  0  0  0  0  0  0  0  0  0  0  0
    6.6071   -0.6218    0.0000 H   0  0  0  0  0  0  0  0  0  0  0  0
    7.0089    0.0679    0.0000 H   0  0  0  0  0  0  0  0  0  0  0  0
    5.8856    1.9964    0.0000 H   0  0  0  0  0  0  0  0  0  0  0  0
    5.0874    1.9871    0.0000 H   0  0  0  0  0  0  0  0  0  0  0  0
    7.0089    0.8974    0.0000 H   0  0  0  0  0  0  0  0  0  0  0  0
    6.6071    1.5872    0.0000 H   0  0  0  0  0  0  0  0  0  0  0  0
    4.5981   -1.6373    0.0000 H   0  0  0  0  0  0  0  0  0  0  0  0
    2.2554    0.0903    0.0000 H   0  0  0  0  0  0  0  0  0  0  0  0
    2.6540   -0.5999    0.0000 H   0  0  0  0  0  0  0  0  0  0  0  0
    3.7320    2.1027    0.0000 H   0  0  0  0  0  0  0  0  0  0  0  0
  1 11  1  0  0  0  0
  2 11  1  0  0  0  0
  3 14  2  0  0  0  0
  4  5  1  0  0  0  0
  4  6  1  0  0  0  0
  4  7  1  0  0  0  0
  4 11  1  0  0  0  0
  5  8  1  0  0  0  0
  5 15  1  0  0  0  0
  5 16  1  0  0  0  0
  6  9  1  0  0  0  0
  6 13  2  0  0  0  0
  7 12  1  0  0  0  0
  7 17  1  0  0  0  0
  7 18  1  0  0  0  0
  8 10  1  0  0  0  0
  8 19  1  0  0  0  0
  8 20  1  0  0  0  0
  9 10  1  0  0  0  0
  9 21  1  0  0  0  0
  9 22  1  0  0  0  0
 10 23  1  0  0  0  0
 10 24  1  0  0  0  0
 11 25  1  0  0  0  0
 12 14  1  0  0  0  0
 12 26  1  0  0  0  0
 12 27  1  0  0  0  0
 13 14  1  0  0  0  0
 13 28  1  0  0  0  0
M  END
> <PUBCHEM_COMPOUND_CID>
572377

> <PUBCHEM_COMPOUND_CANONICALIZED>
1

> <PUBCHEM_CACTVS_COMPLEXITY>
283

> <PUBCHEM_CACTVS_HBOND_ACCEPTOR>
1

> <PUBCHEM_CACTVS_HBOND_DONOR>
0

> <PUBCHEM_CACTVS_ROTATABLE_BOND>
1

> <PUBCHEM_CACTVS_SUBSKEYS>
AAADccBwIAAGAAAAAAAAAAAAAAAAAAAAAAAwQAAAAAAAAACAAAAAGgIAAAAADgeAgMAAAAAAAACIAqBSAAAAAAAgAAAACAEAAkgAABIBAQAAAAAAgAAIAQMIiMCPAAAAAAAAAAAAAAAAAAAAAAAAAAAAAA==

> <PUBCHEM_IUPAC_OPENEYE_NAME>
4a-(dichloromethyl)-3,4,5,6,7,8-hexahydronaphthalen-2-one

> <PUBCHEM_IUPAC_CAS_NAME>
4a-(dichloromethyl)-3,4,5,6,7,8-hexahydronaphthalen-2-one

> <PUBCHEM_IUPAC_NAME_MARKUP>
4<I>a</I>-(dichloromethyl)-3,4,5,6,7,8-hexahydronaphthalen-2-one

> <PUBCHEM_IUPAC_NAME>
4a-(dichloromethyl)-3,4,5,6,7,8-hexahydronaphthalen-2-one

> <PUBCHEM_IUPAC_SYSTEMATIC_NAME>
4a-[bis(chloranyl)methyl]-3,4,5,6,7,8-hexahydronaphthalen-2-one

> <PUBCHEM_IUPAC_TRADITIONAL_NAME>
4a-(dichloromethyl)-3,4,5,6,7,8-hexahydronaphthalen-2-one

> <PUBCHEM_IUPAC_INCHI>
InChI=1S/C11H14Cl2O/c12-10(13)11-5-2-1-3-8(11)7-9(14)4-6-11/h7,10H,1-6H2

> <PUBCHEM_IUPAC_INCHIKEY>
USVCJXSSLDMRBC-UHFFFAOYSA-N

> <PUBCHEM_XLOGP3_AA>
3.1

> <PUBCHEM_EXACT_MASS>
232.0421705

> <PUBCHEM_MOLECULAR_FORMULA>
C11H14Cl2O

> <PUBCHEM_MOLECULAR_WEIGHT>
233.13

> <PUBCHEM_SMILES>
C1CCC2(CCC(=O)C=C2C1)C(Cl)Cl

> <PUBCHEM_CONNECTIVITY_SMILES>
C1CCC2(CCC(=O)C=C2C1)C(Cl)Cl

> <PUBCHEM_CACTVS_TPSA>
17.1

> <PUBCHEM_MONOISOTOPIC_WEIGHT>
232.0421705

> <PUBCHEM_TOTAL_CHARGE>
0

> <PUBCHEM_HEAVY_ATOM_COUNT>
14

> <PUBCHEM_ATOM_DEF_STEREO_COUNT>
0

> <PUBCHEM_ATOM_UDEF_STEREO_COUNT>
1

> <PUBCHEM_BOND_DEF_STEREO_COUNT>
0

> <PUBCHEM_BOND_UDEF_STEREO_COUNT>
0

> <PUBCHEM_ISOTOPIC_ATOM_COUNT>
0

> <PUBCHEM_COMPONENT_COUNT>
1

> <PUBCHEM_CACTVS_TAUTO_COUNT>
-1

> <PUBCHEM_COORDINATE_TYPE>
1
5
255

> <PUBCHEM_BONDANNOTATIONS>
4  11  3

$$$$
