572962
  -OEChem-05122609252D

 31 32  0     1  0  0  0  0  0999 V2000
    2.5369    0.9400    0.0000 N   0  0  0  0  0  0  0  0  0  0  0  0
    5.1350   -0.5600    0.0000 C   0  0  3  0  0  0  0  0  0  0  0  0
    5.1350    0.4400    0.0000 C   0  0  3  0  0  0  0  0  0  0  0  0
    6.0290   -1.0947    0.0000 C   0  0  0  0  0  0  0  0  0  0  0  0
    6.0290    0.9747    0.0000 C   0  0  0  0  0  0  0  0  0  0  0  0
    4.2690    0.9400    0.0000 C   0  0  0  0  0  0  0  0  0  0  0  0
    6.9350   -0.5808    0.0000 C   0  0  0  0  0  0  0  0  0  0  0  0
    6.9350    0.4608    0.0000 C   0  0  0  0  0  0  0  0  0  0  0  0
    4.2690   -1.0600    0.0000 C   0  0  0  0  0  0  0  0  0  0  0  0
    3.4030    0.4400    0.0000 C   0  0  3  0  0  0  0  0  0  0  0  0
    5.1350   -1.5600    0.0000 C   0  0  0  0  0  0  0  0  0  0  0  0
    3.4030   -0.5600    0.0000 C   0  0  0  0  0  0  0  0  0  0  0  0
    5.1302    1.0600    0.0000 H   0  0  0  0  0  0  0  0  0  0  0  0
    5.6244   -1.5645    0.0000 H   0  0  0  0  0  0  0  0  0  0  0  0
    6.4226   -1.5737    0.0000 H   0  0  0  0  0  0  0  0  0  0  0  0
    6.4226    1.4537    0.0000 H   0  0  0  0  0  0  0  0  0  0  0  0
    5.6244    1.4445    0.0000 H   0  0  0  0  0  0  0  0  0  0  0  0
    4.6675    1.4150    0.0000 H   0  0  0  0  0  0  0  0  0  0  0  0
    3.8705    1.4150    0.0000 H   0  0  0  0  0  0  0  0  0  0  0  0
    7.1441   -1.1645    0.0000 H   0  0  0  0  0  0  0  0  0  0  0  0
    7.5459   -0.4747    0.0000 H   0  0  0  0  0  0  0  0  0  0  0  0
    7.5459    0.3547    0.0000 H   0  0  0  0  0  0  0  0  0  0  0  0
    7.1441    1.0445    0.0000 H   0  0  0  0  0  0  0  0  0  0  0  0
    4.2690   -1.6800    0.0000 H   0  0  0  0  0  0  0  0  0  0  0  0
    3.4030    1.0600    0.0000 H   0  0  0  0  0  0  0  0  0  0  0  0
    4.5150   -1.5600    0.0000 H   0  0  0  0  0  0  0  0  0  0  0  0
    5.1350   -2.1800    0.0000 H   0  0  0  0  0  0  0  0  0  0  0  0
    5.7550   -1.5600    0.0000 H   0  0  0  0  0  0  0  0  0  0  0  0
    2.8660   -0.8700    0.0000 H   0  0  0  0  0  0  0  0  0  0  0  0
    2.0000    0.6300    0.0000 H   0  0  0  0  0  0  0  0  0  0  0  0
    2.5369    1.5600    0.0000 H   0  0  0  0  0  0  0  0  0  0  0  0
  1 10  1  0  0  0  0
  1 30  1  0  0  0  0
  1 31  1  0  0  0  0
  2  3  1  0  0  0  0
  2  4  1  0  0  0  0
  2  9  1  0  0  0  0
  2 11  1  0  0  0  0
  3  5  1  0  0  0  0
  3  6  1  0  0  0  0
  3 13  1  0  0  0  0
  4  7  1  0  0  0  0
  4 14  1  0  0  0  0
  4 15  1  0  0  0  0
  5  8  1  0  0  0  0
  5 16  1  0  0  0  0
  5 17  1  0  0  0  0
  6 10  1  0  0  0  0
  6 18  1  0  0  0  0
  6 19  1  0  0  0  0
  7  8  1  0  0  0  0
  7 20  1  0  0  0  0
  7 21  1  0  0  0  0
  8 22  1  0  0  0  0
  8 23  1  0  0  0  0
  9 12  2  0  0  0  0
  9 24  1  0  0  0  0
 10 12  1  0  0  0  0
 10 25  1  0  0  0  0
 11 26  1  0  0  0  0
 11 27  1  0  0  0  0
 11 28  1  0  0  0  0
 12 29  1  0  0  0  0
M  END
> <PUBCHEM_COMPOUND_CID>
572962

> <PUBCHEM_COMPOUND_CANONICALIZED>
1

> <PUBCHEM_CACTVS_COMPLEXITY>
197

> <PUBCHEM_CACTVS_HBOND_ACCEPTOR>
1

> <PUBCHEM_CACTVS_HBOND_DONOR>
1

> <PUBCHEM_CACTVS_ROTATABLE_BOND>
0

> <PUBCHEM_CACTVS_SUBSKEYS>
AAADceByAAAAAAAAAAAAAAAAAAAAAAAAAAAwQAAAAAAAAACAAAAAHAAQAAAADyjBAAQCAABAAACAACBCAACAAAAgAAAICIAAAAgAAAIAgQAAAAAAkAAIAAMQgMAPgAAAAAAAAAAAAAAAACAAAAAAAAAAAA==

> <PUBCHEM_IUPAC_OPENEYE_NAME>
4a-methyl-2,5,6,7,8,8a-hexahydro-1H-naphthalen-2-amine

> <PUBCHEM_IUPAC_CAS_NAME>
4a-methyl-2,5,6,7,8,8a-hexahydro-1H-naphthalen-2-amine

> <PUBCHEM_IUPAC_NAME_MARKUP>
4<I>a</I>-methyl-2,5,6,7,8,8<I>a</I>-hexahydro-1<I>H</I>-naphthalen-2-amine

> <PUBCHEM_IUPAC_NAME>
4a-methyl-2,5,6,7,8,8a-hexahydro-1H-naphthalen-2-amine

> <PUBCHEM_IUPAC_SYSTEMATIC_NAME>
4a-methyl-2,5,6,7,8,8a-hexahydro-1H-naphthalen-2-amine

> <PUBCHEM_IUPAC_TRADITIONAL_NAME>
(4a-methyl-2,5,6,7,8,8a-hexahydro-1H-naphthalen-2-yl)amine

> <PUBCHEM_IUPAC_INCHI>
InChI=1S/C11H19N/c1-11-6-3-2-4-9(11)8-10(12)5-7-11/h5,7,9-10H,2-4,6,8,12H2,1H3

> <PUBCHEM_IUPAC_INCHIKEY>
IAQJHTQLRTUUKN-UHFFFAOYSA-N

> <PUBCHEM_XLOGP3_AA>
2.9

> <PUBCHEM_EXACT_MASS>
165.151749610

> <PUBCHEM_MOLECULAR_FORMULA>
C11H19N

> <PUBCHEM_MOLECULAR_WEIGHT>
165.27

> <PUBCHEM_SMILES>
CC12CCCCC1CC(C=C2)N

> <PUBCHEM_CONNECTIVITY_SMILES>
CC12CCCCC1CC(C=C2)N

> <PUBCHEM_CACTVS_TPSA>
26

> <PUBCHEM_MONOISOTOPIC_WEIGHT>
165.151749610

> <PUBCHEM_TOTAL_CHARGE>
0

> <PUBCHEM_HEAVY_ATOM_COUNT>
12

> <PUBCHEM_ATOM_DEF_STEREO_COUNT>
0

> <PUBCHEM_ATOM_UDEF_STEREO_COUNT>
3

> <PUBCHEM_BOND_DEF_STEREO_COUNT>
0

> <PUBCHEM_BOND_UDEF_STEREO_COUNT>
0

> <PUBCHEM_ISOTOPIC_ATOM_COUNT>
0

> <PUBCHEM_COMPONENT_COUNT>
1

> <PUBCHEM_CACTVS_TAUTO_COUNT>
-1

> <PUBCHEM_COORDINATE_TYPE>
1
5
255

> <PUBCHEM_BONDANNOTATIONS>
10  1  3
2  11  3
3  5  3

$$$$
