573077
  -OEChem-05122609272D

 21 21  0     1  0  0  0  0  0999 V2000
    4.6261    1.9239    0.0000 O   0  0  0  0  0  0  0  0  0  0  0  0
    2.9511   -0.1639    0.0000 C   0  0  3  0  0  0  0  0  0  0  0  0
    3.7601    0.4239    0.0000 C   0  0  3  0  0  0  0  0  0  0  0  0
    4.5691   -0.1639    0.0000 C   0  0  0  0  0  0  0  0  0  0  0  0
    4.2601   -1.1149    0.0000 C   0  0  0  0  0  0  0  0  0  0  0  0
    3.2601   -1.1149    0.0000 C   0  0  0  0  0  0  0  0  0  0  0  0
    2.0000    0.1452    0.0000 C   0  0  0  0  0  0  0  0  0  0  0  0
    3.7601    1.4239    0.0000 C   0  0  0  0  0  0  0  0  0  0  0  0
    2.6723   -1.9239    0.0000 C   0  0  0  0  0  0  0  0  0  0  0  0
    2.5127   -0.6023    0.0000 H   0  0  0  0  0  0  0  0  0  0  0  0
    4.3125    0.7054    0.0000 H   0  0  0  0  0  0  0  0  0  0  0  0
    5.1355   -0.4160    0.0000 H   0  0  0  0  0  0  0  0  0  0  0  0
    4.8791    0.3731    0.0000 H   0  0  0  0  0  0  0  0  0  0  0  0
    4.1953   -1.7315    0.0000 H   0  0  0  0  0  0  0  0  0  0  0  0
    4.8665   -1.2438    0.0000 H   0  0  0  0  0  0  0  0  0  0  0  0
    2.1916    0.7348    0.0000 H   0  0  0  0  0  0  0  0  0  0  0  0
    1.4103    0.3368    0.0000 H   0  0  0  0  0  0  0  0  0  0  0  0
    1.8084   -0.4445    0.0000 H   0  0  0  0  0  0  0  0  0  0  0  0
    3.2231    1.7339    0.0000 H   0  0  0  0  0  0  0  0  0  0  0  0
    2.0557   -1.8591    0.0000 H   0  0  0  0  0  0  0  0  0  0  0  0
    2.9245   -2.4903    0.0000 H   0  0  0  0  0  0  0  0  0  0  0  0
  1  8  2  0  0  0  0
  2  3  1  0  0  0  0
  2  6  1  0  0  0  0
  2  7  1  0  0  0  0
  2 10  1  0  0  0  0
  3  4  1  0  0  0  0
  3  8  1  0  0  0  0
  3 11  1  0  0  0  0
  4  5  1  0  0  0  0
  4 12  1  0  0  0  0
  4 13  1  0  0  0  0
  5  6  1  0  0  0  0
  5 14  1  0  0  0  0
  5 15  1  0  0  0  0
  6  9  2  0  0  0  0
  7 16  1  0  0  0  0
  7 17  1  0  0  0  0
  7 18  1  0  0  0  0
  8 19  1  0  0  0  0
  9 20  1  0  0  0  0
  9 21  1  0  0  0  0
M  END
> <PUBCHEM_COMPOUND_CID>
573077

> <PUBCHEM_COMPOUND_CANONICALIZED>
1

> <PUBCHEM_CACTVS_COMPLEXITY>
138

> <PUBCHEM_CACTVS_HBOND_ACCEPTOR>
1

> <PUBCHEM_CACTVS_HBOND_DONOR>
0

> <PUBCHEM_CACTVS_ROTATABLE_BOND>
1

> <PUBCHEM_CACTVS_SUBSKEYS>
AAADccBwIAAAAAAAAAAAAAAAAAAAAYAAAAAAAAAAAAAAAAAAAAAAGgAAAAAADQCggAICAAAAAACIAghSgAAAAAAgAAAAAAEAAAgAABIAAQAAAAAAgAAAAAEIiACOgAAAAAAAAAAAAAAAAAAAAAAACAAAAA==

> <PUBCHEM_IUPAC_OPENEYE_NAME>
2-methyl-3-methylene-cyclopentanecarbaldehyde

> <PUBCHEM_IUPAC_CAS_NAME>
2-methyl-3-methylene-1-cyclopentanecarboxaldehyde

> <PUBCHEM_IUPAC_NAME_MARKUP>
2-methyl-3-methylidenecyclopentane-1-carbaldehyde

> <PUBCHEM_IUPAC_NAME>
2-methyl-3-methylidenecyclopentane-1-carbaldehyde

> <PUBCHEM_IUPAC_SYSTEMATIC_NAME>
2-methyl-3-methylidene-cyclopentane-1-carbaldehyde

> <PUBCHEM_IUPAC_TRADITIONAL_NAME>
2-methyl-3-methylene-cyclopentanecarbaldehyde

> <PUBCHEM_IUPAC_INCHI>
InChI=1S/C8H12O/c1-6-3-4-8(5-9)7(6)2/h5,7-8H,1,3-4H2,2H3

> <PUBCHEM_IUPAC_INCHIKEY>
PVKIIZQXWDDNDN-UHFFFAOYSA-N

> <PUBCHEM_XLOGP3_AA>
1.1

> <PUBCHEM_EXACT_MASS>
124.088815002

> <PUBCHEM_MOLECULAR_FORMULA>
C8H12O

> <PUBCHEM_MOLECULAR_WEIGHT>
124.18

> <PUBCHEM_SMILES>
CC1C(CCC1=C)C=O

> <PUBCHEM_CONNECTIVITY_SMILES>
CC1C(CCC1=C)C=O

> <PUBCHEM_CACTVS_TPSA>
17.1

> <PUBCHEM_MONOISOTOPIC_WEIGHT>
124.088815002

> <PUBCHEM_TOTAL_CHARGE>
0

> <PUBCHEM_HEAVY_ATOM_COUNT>
9

> <PUBCHEM_ATOM_DEF_STEREO_COUNT>
0

> <PUBCHEM_ATOM_UDEF_STEREO_COUNT>
2

> <PUBCHEM_BOND_DEF_STEREO_COUNT>
0

> <PUBCHEM_BOND_UDEF_STEREO_COUNT>
0

> <PUBCHEM_ISOTOPIC_ATOM_COUNT>
0

> <PUBCHEM_COMPONENT_COUNT>
1

> <PUBCHEM_CACTVS_TAUTO_COUNT>
-1

> <PUBCHEM_COORDINATE_TYPE>
1
5
255

> <PUBCHEM_BONDANNOTATIONS>
2  7  3
3  8  3

$$$$
