573521
  -OEChem-05122609472D

 26 25  0     1  0  0  0  0  0999 V2000
    3.7320   -0.4720    0.0000 P   0  0  0  0  0  0  0  0  0  0  0  0
    4.5981    1.0280    0.0000 O   0  0  0  0  0  0  0  0  0  0  0  0
    2.8660   -0.9720    0.0000 O   0  0  0  0  0  0  0  0  0  0  0  0
    3.2320    0.3940    0.0000 O   0  0  0  0  0  0  0  0  0  0  0  0
    4.2320   -1.3380    0.0000 O   0  0  0  0  0  0  0  0  0  0  0  0
    4.5981    0.0280    0.0000 C   0  0  3  0  0  0  0  0  0  0  0  0
    5.4641   -0.4720    0.0000 C   0  0  0  0  0  0  0  0  0  0  0  0
    6.3301    0.0280    0.0000 C   0  0  0  0  0  0  0  0  0  0  0  0
    7.1962   -0.4720    0.0000 C   0  0  0  0  0  0  0  0  0  0  0  0
    2.0000   -0.4720    0.0000 C   0  0  0  0  0  0  0  0  0  0  0  0
    2.2320    0.3940    0.0000 C   0  0  0  0  0  0  0  0  0  0  0  0
    5.1350    0.3380    0.0000 H   0  0  0  0  0  0  0  0  0  0  0  0
    5.0656   -0.9469    0.0000 H   0  0  0  0  0  0  0  0  0  0  0  0
    5.8626   -0.9469    0.0000 H   0  0  0  0  0  0  0  0  0  0  0  0
    6.7287    0.5030    0.0000 H   0  0  0  0  0  0  0  0  0  0  0  0
    5.9316    0.5030    0.0000 H   0  0  0  0  0  0  0  0  0  0  0  0
    6.8862   -1.0089    0.0000 H   0  0  0  0  0  0  0  0  0  0  0  0
    7.7331   -0.7820    0.0000 H   0  0  0  0  0  0  0  0  0  0  0  0
    7.5062    0.0649    0.0000 H   0  0  0  0  0  0  0  0  0  0  0  0
    5.1350    1.3380    0.0000 H   0  0  0  0  0  0  0  0  0  0  0  0
    2.3100    0.0649    0.0000 H   0  0  0  0  0  0  0  0  0  0  0  0
    1.4631   -0.1620    0.0000 H   0  0  0  0  0  0  0  0  0  0  0  0
    1.6900   -1.0089    0.0000 H   0  0  0  0  0  0  0  0  0  0  0  0
    2.2320    1.0140    0.0000 H   0  0  0  0  0  0  0  0  0  0  0  0
    1.6120    0.3940    0.0000 H   0  0  0  0  0  0  0  0  0  0  0  0
    2.2320   -0.2260    0.0000 H   0  0  0  0  0  0  0  0  0  0  0  0
  1  3  1  0  0  0  0
  1  4  1  0  0  0  0
  1  5  2  0  0  0  0
  1  6  1  0  0  0  0
  2  6  1  0  0  0  0
  2 20  1  0  0  0  0
  3 10  1  0  0  0  0
  4 11  1  0  0  0  0
  6  7  1  0  0  0  0
  6 12  1  0  0  0  0
  7  8  1  0  0  0  0
  7 13  1  0  0  0  0
  7 14  1  0  0  0  0
  8  9  1  0  0  0  0
  8 15  1  0  0  0  0
  8 16  1  0  0  0  0
  9 17  1  0  0  0  0
  9 18  1  0  0  0  0
  9 19  1  0  0  0  0
 10 21  1  0  0  0  0
 10 22  1  0  0  0  0
 10 23  1  0  0  0  0
 11 24  1  0  0  0  0
 11 25  1  0  0  0  0
 11 26  1  0  0  0  0
M  END
> <PUBCHEM_COMPOUND_CID>
573521

> <PUBCHEM_COMPOUND_CANONICALIZED>
1

> <PUBCHEM_CACTVS_COMPLEXITY>
140

> <PUBCHEM_CACTVS_HBOND_ACCEPTOR>
4

> <PUBCHEM_CACTVS_HBOND_DONOR>
1

> <PUBCHEM_CACTVS_ROTATABLE_BOND>
5

> <PUBCHEM_CACTVS_SUBSKEYS>
AAADccBgOAIAAAAAAAAAAAAAAAAAAAAAAAAAAAAAAAAAAAAAAAAAGggACCAACACogAICAAAAAxAAQAAAAIAAAAAAAAAAAAAAAAAAEAAAAAAAQAAEAAAAAAAAAAAAAAAAAAAAAAAAAAAAAAAAAAAAAAAAAA==

> <PUBCHEM_IUPAC_OPENEYE_NAME>
1-dimethoxyphosphorylbutan-1-ol

> <PUBCHEM_IUPAC_CAS_NAME>
1-dimethoxyphosphoryl-1-butanol

> <PUBCHEM_IUPAC_NAME_MARKUP>
1-dimethoxyphosphorylbutan-1-ol

> <PUBCHEM_IUPAC_NAME>
1-dimethoxyphosphorylbutan-1-ol

> <PUBCHEM_IUPAC_SYSTEMATIC_NAME>
1-dimethoxyphosphorylbutan-1-ol

> <PUBCHEM_IUPAC_TRADITIONAL_NAME>
1-dimethoxyphosphorylbutan-1-ol

> <PUBCHEM_IUPAC_INCHI>
InChI=1S/C6H15O4P/c1-4-5-6(7)11(8,9-2)10-3/h6-7H,4-5H2,1-3H3

> <PUBCHEM_IUPAC_INCHIKEY>
PHJZUYURNWKKMA-UHFFFAOYSA-N

> <PUBCHEM_XLOGP3_AA>
0.2

> <PUBCHEM_EXACT_MASS>
182.07079595

> <PUBCHEM_MOLECULAR_FORMULA>
C6H15O4P

> <PUBCHEM_MOLECULAR_WEIGHT>
182.15

> <PUBCHEM_SMILES>
CCCC(O)P(=O)(OC)OC

> <PUBCHEM_CONNECTIVITY_SMILES>
CCCC(O)P(=O)(OC)OC

> <PUBCHEM_CACTVS_TPSA>
55.8

> <PUBCHEM_MONOISOTOPIC_WEIGHT>
182.07079595

> <PUBCHEM_TOTAL_CHARGE>
0

> <PUBCHEM_HEAVY_ATOM_COUNT>
11

> <PUBCHEM_ATOM_DEF_STEREO_COUNT>
0

> <PUBCHEM_ATOM_UDEF_STEREO_COUNT>
1

> <PUBCHEM_BOND_DEF_STEREO_COUNT>
0

> <PUBCHEM_BOND_UDEF_STEREO_COUNT>
0

> <PUBCHEM_ISOTOPIC_ATOM_COUNT>
0

> <PUBCHEM_COMPONENT_COUNT>
1

> <PUBCHEM_CACTVS_TAUTO_COUNT>
-1

> <PUBCHEM_COORDINATE_TYPE>
1
5
255

> <PUBCHEM_BONDANNOTATIONS>
6  2  3

$$$$
