57357814
  -OEChem-05122609462D

 66 64  0     0  0  0  0  0  0999 V2000
    7.0321    2.1200    0.0000 O   0  5  0  0  0  0  0  0  0  0  0  0
    8.7642    2.1200    0.0000 O   0  0  0  0  0  0  0  0  0  0  0  0
    1.4030    5.1569    0.0000 N   0  3  0  0  0  0  0  0  0  0  0  0
    6.5991    5.1569    0.0000 C   0  0  0  0  0  0  0  0  0  0  0  0
    5.7331    5.6569    0.0000 C   0  0  0  0  0  0  0  0  0  0  0  0
    7.4651    5.6569    0.0000 C   0  0  0  0  0  0  0  0  0  0  0  0
    4.8671    5.1569    0.0000 C   0  0  0  0  0  0  0  0  0  0  0  0
    8.3312    5.1569    0.0000 C   0  0  0  0  0  0  0  0  0  0  0  0
    4.0010    5.6569    0.0000 C   0  0  0  0  0  0  0  0  0  0  0  0
    9.1972    5.6569    0.0000 C   0  0  0  0  0  0  0  0  0  0  0  0
    3.1350    5.1569    0.0000 C   0  0  0  0  0  0  0  0  0  0  0  0
   10.0632    5.1569    0.0000 C   0  0  0  0  0  0  0  0  0  0  0  0
    2.2690    5.6569    0.0000 C   0  0  0  0  0  0  0  0  0  0  0  0
   10.9292    5.6569    0.0000 C   0  0  0  0  0  0  0  0  0  0  0  0
   11.7953    5.1569    0.0000 C   0  0  0  0  0  0  0  0  0  0  0  0
   12.6613    5.6569    0.0000 C   0  0  0  0  0  0  0  0  0  0  0  0
   13.5273    5.1569    0.0000 C   0  0  0  0  0  0  0  0  0  0  0  0
    0.5369    4.6569    0.0000 C   0  0  0  0  0  0  0  0  0  0  0  0
    0.9030    6.0230    0.0000 C   0  0  0  0  0  0  0  0  0  0  0  0
   14.3933    5.6569    0.0000 C   0  0  0  0  0  0  0  0  0  0  0  0
   15.2594    5.1569    0.0000 C   0  0  0  0  0  0  0  0  0  0  0  0
    7.8982    0.6200    0.0000 C   0  0  0  0  0  0  0  0  0  0  0  0
    7.8982    1.6200    0.0000 C   0  0  0  0  0  0  0  0  0  0  0  0
    6.2006    4.6820    0.0000 H   0  0  0  0  0  0  0  0  0  0  0  0
    6.9976    4.6820    0.0000 H   0  0  0  0  0  0  0  0  0  0  0  0
    6.1316    6.1319    0.0000 H   0  0  0  0  0  0  0  0  0  0  0  0
    5.3346    6.1319    0.0000 H   0  0  0  0  0  0  0  0  0  0  0  0
    7.8637    6.1319    0.0000 H   0  0  0  0  0  0  0  0  0  0  0  0
    7.0666    6.1319    0.0000 H   0  0  0  0  0  0  0  0  0  0  0  0
    4.4685    4.6820    0.0000 H   0  0  0  0  0  0  0  0  0  0  0  0
    5.2656    4.6820    0.0000 H   0  0  0  0  0  0  0  0  0  0  0  0
    7.9326    4.6820    0.0000 H   0  0  0  0  0  0  0  0  0  0  0  0
    8.7297    4.6820    0.0000 H   0  0  0  0  0  0  0  0  0  0  0  0
    4.3996    6.1319    0.0000 H   0  0  0  0  0  0  0  0  0  0  0  0
    3.6025    6.1319    0.0000 H   0  0  0  0  0  0  0  0  0  0  0  0
    9.5957    6.1319    0.0000 H   0  0  0  0  0  0  0  0  0  0  0  0
    8.7987    6.1319    0.0000 H   0  0  0  0  0  0  0  0  0  0  0  0
    2.7365    4.6820    0.0000 H   0  0  0  0  0  0  0  0  0  0  0  0
    3.5335    4.6820    0.0000 H   0  0  0  0  0  0  0  0  0  0  0  0
    9.6647    4.6820    0.0000 H   0  0  0  0  0  0  0  0  0  0  0  0
   10.4617    4.6820    0.0000 H   0  0  0  0  0  0  0  0  0  0  0  0
    2.6675    6.1319    0.0000 H   0  0  0  0  0  0  0  0  0  0  0  0
    1.8705    6.1319    0.0000 H   0  0  0  0  0  0  0  0  0  0  0  0
   11.3278    6.1319    0.0000 H   0  0  0  0  0  0  0  0  0  0  0  0
   10.5307    6.1319    0.0000 H   0  0  0  0  0  0  0  0  0  0  0  0
    1.7130    4.6200    0.0000 H   0  0  0  0  0  0  0  0  0  0  0  0
   11.3967    4.6820    0.0000 H   0  0  0  0  0  0  0  0  0  0  0  0
   12.1938    4.6820    0.0000 H   0  0  0  0  0  0  0  0  0  0  0  0
   13.0598    6.1319    0.0000 H   0  0  0  0  0  0  0  0  0  0  0  0
   12.2628    6.1319    0.0000 H   0  0  0  0  0  0  0  0  0  0  0  0
   13.1288    4.6820    0.0000 H   0  0  0  0  0  0  0  0  0  0  0  0
   13.9258    4.6820    0.0000 H   0  0  0  0  0  0  0  0  0  0  0  0
    0.2269    5.1939    0.0000 H   0  0  0  0  0  0  0  0  0  0  0  0
    0.0000    4.3469    0.0000 H   0  0  0  0  0  0  0  0  0  0  0  0
    0.8469    4.1200    0.0000 H   0  0  0  0  0  0  0  0  0  0  0  0
    1.4399    6.3330    0.0000 H   0  0  0  0  0  0  0  0  0  0  0  0
    0.5930    6.5599    0.0000 H   0  0  0  0  0  0  0  0  0  0  0  0
    0.3660    5.7130    0.0000 H   0  0  0  0  0  0  0  0  0  0  0  0
   14.7919    6.1319    0.0000 H   0  0  0  0  0  0  0  0  0  0  0  0
   13.9948    6.1319    0.0000 H   0  0  0  0  0  0  0  0  0  0  0  0
   14.9494    4.6200    0.0000 H   0  0  0  0  0  0  0  0  0  0  0  0
   15.7963    4.8469    0.0000 H   0  0  0  0  0  0  0  0  0  0  0  0
   15.5694    5.6939    0.0000 H   0  0  0  0  0  0  0  0  0  0  0  0
    7.2782    0.6200    0.0000 H   0  0  0  0  0  0  0  0  0  0  0  0
    7.8982    0.0000    0.0000 H   0  0  0  0  0  0  0  0  0  0  0  0
    8.5182    0.6200    0.0000 H   0  0  0  0  0  0  0  0  0  0  0  0
  1 23  1  0  0  0  0
  2 23  2  0  0  0  0
  3 13  1  0  0  0  0
  3 18  1  0  0  0  0
  3 19  1  0  0  0  0
  3 46  1  0  0  0  0
  4  5  1  0  0  0  0
  4  6  1  0  0  0  0
  4 24  1  0  0  0  0
  4 25  1  0  0  0  0
  5  7  1  0  0  0  0
  5 26  1  0  0  0  0
  5 27  1  0  0  0  0
  6  8  1  0  0  0  0
  6 28  1  0  0  0  0
  6 29  1  0  0  0  0
  7  9  1  0  0  0  0
  7 30  1  0  0  0  0
  7 31  1  0  0  0  0
  8 10  1  0  0  0  0
  8 32  1  0  0  0  0
  8 33  1  0  0  0  0
  9 11  1  0  0  0  0
  9 34  1  0  0  0  0
  9 35  1  0  0  0  0
 10 12  1  0  0  0  0
 10 36  1  0  0  0  0
 10 37  1  0  0  0  0
 11 13  1  0  0  0  0
 11 38  1  0  0  0  0
 11 39  1  0  0  0  0
 12 14  1  0  0  0  0
 12 40  1  0  0  0  0
 12 41  1  0  0  0  0
 13 42  1  0  0  0  0
 13 43  1  0  0  0  0
 14 15  1  0  0  0  0
 14 44  1  0  0  0  0
 14 45  1  0  0  0  0
 15 16  1  0  0  0  0
 15 47  1  0  0  0  0
 15 48  1  0  0  0  0
 16 17  1  0  0  0  0
 16 49  1  0  0  0  0
 16 50  1  0  0  0  0
 17 20  1  0  0  0  0
 17 51  1  0  0  0  0
 17 52  1  0  0  0  0
 18 53  1  0  0  0  0
 18 54  1  0  0  0  0
 18 55  1  0  0  0  0
 19 56  1  0  0  0  0
 19 57  1  0  0  0  0
 19 58  1  0  0  0  0
 20 21  1  0  0  0  0
 20 59  1  0  0  0  0
 20 60  1  0  0  0  0
 21 61  1  0  0  0  0
 21 62  1  0  0  0  0
 21 63  1  0  0  0  0
 22 23  1  0  0  0  0
 22 64  1  0  0  0  0
 22 65  1  0  0  0  0
 22 66  1  0  0  0  0
M  CHG  2   1  -1   3   1
M  END
> <PUBCHEM_COMPOUND_CID>
57357814

> <PUBCHEM_COMPOUND_CANONICALIZED>
1

> <PUBCHEM_CACTVS_COMPLEXITY>
179

> <PUBCHEM_CACTVS_HBOND_ACCEPTOR>
2

> <PUBCHEM_CACTVS_HBOND_DONOR>
1

> <PUBCHEM_CACTVS_ROTATABLE_BOND>
15

> <PUBCHEM_CACTVS_SUBSKEYS>
AAADcfB6MAAAAAAAAAAAAAAAAAAAAAAAAAAAAAAAAAAAAAAAAAAAHgAQAAAACADBgAQCCAPAAAAIAACQCAAAAAAAAAAAAIAIAAAAAAIAgAAEAAAAEAAAAAEQgIAAAAAAAAAAAAAAAAAAAAAAAAAAAAAAAA==

> <PUBCHEM_IUPAC_OPENEYE_NAME>
hexadecyl(dimethyl)ammonium acetate

> <PUBCHEM_IUPAC_CAS_NAME>
hexadecyl(dimethyl)ammonium acetate

> <PUBCHEM_IUPAC_NAME_MARKUP>
hexadecyl(dimethyl)azanium acetate

> <PUBCHEM_IUPAC_NAME>
hexadecyl(dimethyl)azanium acetate

> <PUBCHEM_IUPAC_SYSTEMATIC_NAME>
hexadecyl(dimethyl)azanium ethanoate

> <PUBCHEM_IUPAC_TRADITIONAL_NAME>
cetyl(dimethyl)ammonium acetate

> <PUBCHEM_IUPAC_INCHI>
InChI=1S/C18H39N.C2H4O2/c1-4-5-6-7-8-9-10-11-12-13-14-15-16-17-18-19(2)3;1-2(3)4/h4-18H2,1-3H3;1H3,(H,3,4)

> <PUBCHEM_IUPAC_INCHIKEY>
VGUANSONTIBISX-UHFFFAOYSA-N

> <PUBCHEM_EXACT_MASS>
329.329379614

> <PUBCHEM_MOLECULAR_FORMULA>
C20H43NO2

> <PUBCHEM_MOLECULAR_WEIGHT>
329.6

> <PUBCHEM_SMILES>
CCCCCCCCCCCCCCCC[NH+](C)C.CC(=O)[O-]

> <PUBCHEM_CONNECTIVITY_SMILES>
CCCCCCCCCCCCCCCC[NH+](C)C.CC(=O)[O-]

> <PUBCHEM_CACTVS_TPSA>
44.6

> <PUBCHEM_MONOISOTOPIC_WEIGHT>
329.329379614

> <PUBCHEM_TOTAL_CHARGE>
0

> <PUBCHEM_HEAVY_ATOM_COUNT>
23

> <PUBCHEM_ATOM_DEF_STEREO_COUNT>
0

> <PUBCHEM_ATOM_UDEF_STEREO_COUNT>
0

> <PUBCHEM_BOND_DEF_STEREO_COUNT>
0

> <PUBCHEM_BOND_UDEF_STEREO_COUNT>
0

> <PUBCHEM_ISOTOPIC_ATOM_COUNT>
0

> <PUBCHEM_COMPONENT_COUNT>
2

> <PUBCHEM_CACTVS_TAUTO_COUNT>
-1

> <PUBCHEM_COORDINATE_TYPE>
1
5
255

$$$$
