575391
  -OEChem-05122609272D

 32 31  0     0  0  0  0  0  0999 V2000
    6.3301   -0.0670    0.0000 Si  0  0  0  0  0  0  0  0  0  0  0  0
    5.4641    0.4330    0.0000 O   0  0  0  0  0  0  0  0  0  0  0  0
    2.8660    0.9330    0.0000 O   0  0  0  0  0  0  0  0  0  0  0  0
    4.5981   -0.0670    0.0000 C   0  0  0  0  0  0  0  0  0  0  0  0
    3.7320   -0.5670    0.0000 C   0  0  0  0  0  0  0  0  0  0  0  0
    4.0981    0.7990    0.0000 C   0  0  0  0  0  0  0  0  0  0  0  0
    5.0981   -0.9330    0.0000 C   0  0  0  0  0  0  0  0  0  0  0  0
    7.1962   -0.5670    0.0000 C   0  0  0  0  0  0  0  0  0  0  0  0
    6.8301    0.7990    0.0000 C   0  0  0  0  0  0  0  0  0  0  0  0
    5.8301   -0.9330    0.0000 C   0  0  0  0  0  0  0  0  0  0  0  0
    2.8660   -0.0670    0.0000 C   0  0  0  0  0  0  0  0  0  0  0  0
    2.0000   -0.5670    0.0000 C   0  0  0  0  0  0  0  0  0  0  0  0
    3.3335   -1.0419    0.0000 H   0  0  0  0  0  0  0  0  0  0  0  0
    4.1306   -1.0419    0.0000 H   0  0  0  0  0  0  0  0  0  0  0  0
    4.6350    1.1090    0.0000 H   0  0  0  0  0  0  0  0  0  0  0  0
    3.7881    1.3360    0.0000 H   0  0  0  0  0  0  0  0  0  0  0  0
    3.5611    0.4890    0.0000 H   0  0  0  0  0  0  0  0  0  0  0  0
    4.5611   -1.2430    0.0000 H   0  0  0  0  0  0  0  0  0  0  0  0
    5.4081   -1.4700    0.0000 H   0  0  0  0  0  0  0  0  0  0  0  0
    5.6350   -0.6230    0.0000 H   0  0  0  0  0  0  0  0  0  0  0  0
    6.8862   -1.1039    0.0000 H   0  0  0  0  0  0  0  0  0  0  0  0
    7.7331   -0.8770    0.0000 H   0  0  0  0  0  0  0  0  0  0  0  0
    7.5062   -0.0301    0.0000 H   0  0  0  0  0  0  0  0  0  0  0  0
    7.3671    0.4890    0.0000 H   0  0  0  0  0  0  0  0  0  0  0  0
    7.1401    1.3360    0.0000 H   0  0  0  0  0  0  0  0  0  0  0  0
    6.2932    1.1090    0.0000 H   0  0  0  0  0  0  0  0  0  0  0  0
    5.2932   -0.6230    0.0000 H   0  0  0  0  0  0  0  0  0  0  0  0
    5.5201   -1.4700    0.0000 H   0  0  0  0  0  0  0  0  0  0  0  0
    6.3671   -1.2430    0.0000 H   0  0  0  0  0  0  0  0  0  0  0  0
    1.6900   -0.0301    0.0000 H   0  0  0  0  0  0  0  0  0  0  0  0
    1.4631   -0.8770    0.0000 H   0  0  0  0  0  0  0  0  0  0  0  0
    2.3100   -1.1039    0.0000 H   0  0  0  0  0  0  0  0  0  0  0  0
  1  2  1  0  0  0  0
  1  8  1  0  0  0  0
  1  9  1  0  0  0  0
  1 10  1  0  0  0  0
  2  4  1  0  0  0  0
  3 11  2  0  0  0  0
  4  5  1  0  0  0  0
  4  6  1  0  0  0  0
  4  7  1  0  0  0  0
  5 11  1  0  0  0  0
  5 13  1  0  0  0  0
  5 14  1  0  0  0  0
  6 15  1  0  0  0  0
  6 16  1  0  0  0  0
  6 17  1  0  0  0  0
  7 18  1  0  0  0  0
  7 19  1  0  0  0  0
  7 20  1  0  0  0  0
  8 21  1  0  0  0  0
  8 22  1  0  0  0  0
  8 23  1  0  0  0  0
  9 24  1  0  0  0  0
  9 25  1  0  0  0  0
  9 26  1  0  0  0  0
 10 27  1  0  0  0  0
 10 28  1  0  0  0  0
 10 29  1  0  0  0  0
 11 12  1  0  0  0  0
 12 30  1  0  0  0  0
 12 31  1  0  0  0  0
 12 32  1  0  0  0  0
M  END
> <PUBCHEM_COMPOUND_CID>
575391

> <PUBCHEM_COMPOUND_CANONICALIZED>
1

> <PUBCHEM_CACTVS_COMPLEXITY>
168

> <PUBCHEM_CACTVS_HBOND_ACCEPTOR>
2

> <PUBCHEM_CACTVS_HBOND_DONOR>
0

> <PUBCHEM_CACTVS_ROTATABLE_BOND>
4

> <PUBCHEM_CACTVS_SUBSKEYS>
AAADceBwMAgAAAAAAAAAAAAAAAAAAAAAAAAAAAAAAAAAAAAAAAAAGhAAAEAADESAgABCAAAAAAEIAIAQAAAAAAAAAAAAAAEAAAAAABYAAAAAAAAEIAAAAAAAAAAMAAAAAAAAAAAAAAAAAAAAAAAAAAAAAA==

> <PUBCHEM_IUPAC_OPENEYE_NAME>
4-methyl-4-trimethylsilyloxy-pentan-2-one

> <PUBCHEM_IUPAC_CAS_NAME>
4-methyl-4-trimethylsilyloxy-2-pentanone

> <PUBCHEM_IUPAC_NAME_MARKUP>
4-methyl-4-trimethylsilyloxypentan-2-one

> <PUBCHEM_IUPAC_NAME>
4-methyl-4-trimethylsilyloxypentan-2-one

> <PUBCHEM_IUPAC_SYSTEMATIC_NAME>
4-methyl-4-trimethylsilyloxy-pentan-2-one

> <PUBCHEM_IUPAC_TRADITIONAL_NAME>
4-methyl-4-trimethylsilyloxy-pentan-2-one

> <PUBCHEM_IUPAC_INCHI>
InChI=1S/C9H20O2Si/c1-8(10)7-9(2,3)11-12(4,5)6/h7H2,1-6H3

> <PUBCHEM_IUPAC_INCHIKEY>
LZUXEUITVJWLRQ-UHFFFAOYSA-N

> <PUBCHEM_EXACT_MASS>
188.123256411

> <PUBCHEM_MOLECULAR_FORMULA>
C9H20O2Si

> <PUBCHEM_MOLECULAR_WEIGHT>
188.34

> <PUBCHEM_SMILES>
CC(=O)CC(C)(C)O[Si](C)(C)C

> <PUBCHEM_CONNECTIVITY_SMILES>
CC(=O)CC(C)(C)O[Si](C)(C)C

> <PUBCHEM_CACTVS_TPSA>
26.3

> <PUBCHEM_MONOISOTOPIC_WEIGHT>
188.123256411

> <PUBCHEM_TOTAL_CHARGE>
0

> <PUBCHEM_HEAVY_ATOM_COUNT>
12

> <PUBCHEM_ATOM_DEF_STEREO_COUNT>
0

> <PUBCHEM_ATOM_UDEF_STEREO_COUNT>
0

> <PUBCHEM_BOND_DEF_STEREO_COUNT>
0

> <PUBCHEM_BOND_UDEF_STEREO_COUNT>
0

> <PUBCHEM_ISOTOPIC_ATOM_COUNT>
0

> <PUBCHEM_COMPONENT_COUNT>
1

> <PUBCHEM_CACTVS_TAUTO_COUNT>
-1

> <PUBCHEM_COORDINATE_TYPE>
1
5
255

$$$$
