575411
  -OEChem-05122609162D

 65 65  0     1  0  0  0  0  0999 V2000
    3.7601   -1.4437    0.0000 O   0  0  0  0  0  0  0  0  0  0  0  0
    4.2601    0.0952    0.0000 O   0  0  0  0  0  0  0  0  0  0  0  0
    2.9511   -0.8559    0.0000 C   0  0  0  0  0  0  0  0  0  0  0  0
    3.2601    0.0952    0.0000 C   0  0  3  0  0  0  0  0  0  0  0  0
    4.5691   -0.8559    0.0000 C   0  0  3  0  0  0  0  0  0  0  0  0
    5.5202   -1.1649    0.0000 C   0  0  0  0  0  0  0  0  0  0  0  0
    6.2633   -0.4958    0.0000 C   0  0  0  0  0  0  0  0  0  0  0  0
    2.0000   -0.5469    0.0000 C   0  0  0  0  0  0  0  0  0  0  0  0
    2.3633   -1.6649    0.0000 C   0  0  0  0  0  0  0  0  0  0  0  0
    7.2144   -0.8048    0.0000 C   0  0  0  0  0  0  0  0  0  0  0  0
    2.6723    0.9042    0.0000 C   0  0  0  0  0  0  0  0  0  0  0  0
    7.9575   -0.1357    0.0000 C   0  0  0  0  0  0  0  0  0  0  0  0
    8.9086   -0.4447    0.0000 C   0  0  0  0  0  0  0  0  0  0  0  0
    9.6517    0.2245    0.0000 C   0  0  0  0  0  0  0  0  0  0  0  0
   10.6028   -0.0846    0.0000 C   0  0  0  0  0  0  0  0  0  0  0  0
   11.3459    0.5846    0.0000 C   0  0  0  0  0  0  0  0  0  0  0  0
   12.2970    0.2755    0.0000 C   0  0  0  0  0  0  0  0  0  0  0  0
   13.0401    0.9447    0.0000 C   0  0  0  0  0  0  0  0  0  0  0  0
   13.9912    0.6357    0.0000 C   0  0  0  0  0  0  0  0  0  0  0  0
   14.7343    1.3048    0.0000 C   0  0  0  0  0  0  0  0  0  0  0  0
   15.6854    0.9958    0.0000 C   0  0  0  0  0  0  0  0  0  0  0  0
   16.4285    1.6649    0.0000 C   0  0  0  0  0  0  0  0  0  0  0  0
   17.3796    1.3559    0.0000 C   0  0  0  0  0  0  0  0  0  0  0  0
    3.6460    0.8525    0.0000 H   0  0  0  0  0  0  0  0  0  0  0  0
    4.7021   -1.6954    0.0000 H   0  0  0  0  0  0  0  0  0  0  0  0
    5.2291   -1.7123    0.0000 H   0  0  0  0  0  0  0  0  0  0  0  0
    6.0087   -1.5466    0.0000 H   0  0  0  0  0  0  0  0  0  0  0  0
    6.5544    0.0517    0.0000 H   0  0  0  0  0  0  0  0  0  0  0  0
    5.7747   -0.1141    0.0000 H   0  0  0  0  0  0  0  0  0  0  0  0
    2.1916    0.0428    0.0000 H   0  0  0  0  0  0  0  0  0  0  0  0
    1.4103   -0.3553    0.0000 H   0  0  0  0  0  0  0  0  0  0  0  0
    1.8084   -1.1365    0.0000 H   0  0  0  0  0  0  0  0  0  0  0  0
    1.8617   -1.3005    0.0000 H   0  0  0  0  0  0  0  0  0  0  0  0
    1.9988   -2.1665    0.0000 H   0  0  0  0  0  0  0  0  0  0  0  0
    2.8649   -2.0293    0.0000 H   0  0  0  0  0  0  0  0  0  0  0  0
    6.9233   -1.3522    0.0000 H   0  0  0  0  0  0  0  0  0  0  0  0
    7.7029   -1.1865    0.0000 H   0  0  0  0  0  0  0  0  0  0  0  0
    3.1739    1.2686    0.0000 H   0  0  0  0  0  0  0  0  0  0  0  0
    2.3079    1.4058    0.0000 H   0  0  0  0  0  0  0  0  0  0  0  0
    2.1707    0.5398    0.0000 H   0  0  0  0  0  0  0  0  0  0  0  0
    8.2486    0.4118    0.0000 H   0  0  0  0  0  0  0  0  0  0  0  0
    7.4689    0.2460    0.0000 H   0  0  0  0  0  0  0  0  0  0  0  0
    8.6175   -0.9921    0.0000 H   0  0  0  0  0  0  0  0  0  0  0  0
    9.3971   -0.8264    0.0000 H   0  0  0  0  0  0  0  0  0  0  0  0
    9.9428    0.7719    0.0000 H   0  0  0  0  0  0  0  0  0  0  0  0
    9.1631    0.6062    0.0000 H   0  0  0  0  0  0  0  0  0  0  0  0
   10.3117   -0.6320    0.0000 H   0  0  0  0  0  0  0  0  0  0  0  0
   11.0913   -0.4663    0.0000 H   0  0  0  0  0  0  0  0  0  0  0  0
   11.6370    1.1320    0.0000 H   0  0  0  0  0  0  0  0  0  0  0  0
   10.8573    0.9663    0.0000 H   0  0  0  0  0  0  0  0  0  0  0  0
   12.0059   -0.2719    0.0000 H   0  0  0  0  0  0  0  0  0  0  0  0
   12.7855   -0.1062    0.0000 H   0  0  0  0  0  0  0  0  0  0  0  0
   13.3312    1.4921    0.0000 H   0  0  0  0  0  0  0  0  0  0  0  0
   12.5515    1.3264    0.0000 H   0  0  0  0  0  0  0  0  0  0  0  0
   13.7001    0.0882    0.0000 H   0  0  0  0  0  0  0  0  0  0  0  0
   14.4797    0.2540    0.0000 H   0  0  0  0  0  0  0  0  0  0  0  0
   15.0254    1.8522    0.0000 H   0  0  0  0  0  0  0  0  0  0  0  0
   14.2457    1.6865    0.0000 H   0  0  0  0  0  0  0  0  0  0  0  0
   15.3943    0.4483    0.0000 H   0  0  0  0  0  0  0  0  0  0  0  0
   16.1739    0.6141    0.0000 H   0  0  0  0  0  0  0  0  0  0  0  0
   16.7196    2.2123    0.0000 H   0  0  0  0  0  0  0  0  0  0  0  0
   15.9399    2.0466    0.0000 H   0  0  0  0  0  0  0  0  0  0  0  0
   17.1880    0.7662    0.0000 H   0  0  0  0  0  0  0  0  0  0  0  0
   17.9692    1.1643    0.0000 H   0  0  0  0  0  0  0  0  0  0  0  0
   17.5711    1.9455    0.0000 H   0  0  0  0  0  0  0  0  0  0  0  0
  1  3  1  0  0  0  0
  1  5  1  0  0  0  0
  2  4  1  0  0  0  0
  2  5  1  0  0  0  0
  3  4  1  0  0  0  0
  3  8  1  0  0  0  0
  3  9  1  0  0  0  0
  4 11  1  0  0  0  0
  4 24  1  0  0  0  0
  5  6  1  0  0  0  0
  5 25  1  0  0  0  0
  6  7  1  0  0  0  0
  6 26  1  0  0  0  0
  6 27  1  0  0  0  0
  7 10  1  0  0  0  0
  7 28  1  0  0  0  0
  7 29  1  0  0  0  0
  8 30  1  0  0  0  0
  8 31  1  0  0  0  0
  8 32  1  0  0  0  0
  9 33  1  0  0  0  0
  9 34  1  0  0  0  0
  9 35  1  0  0  0  0
 10 12  1  0  0  0  0
 10 36  1  0  0  0  0
 10 37  1  0  0  0  0
 11 38  1  0  0  0  0
 11 39  1  0  0  0  0
 11 40  1  0  0  0  0
 12 13  1  0  0  0  0
 12 41  1  0  0  0  0
 12 42  1  0  0  0  0
 13 14  1  0  0  0  0
 13 43  1  0  0  0  0
 13 44  1  0  0  0  0
 14 15  1  0  0  0  0
 14 45  1  0  0  0  0
 14 46  1  0  0  0  0
 15 16  1  0  0  0  0
 15 47  1  0  0  0  0
 15 48  1  0  0  0  0
 16 17  1  0  0  0  0
 16 49  1  0  0  0  0
 16 50  1  0  0  0  0
 17 18  1  0  0  0  0
 17 51  1  0  0  0  0
 17 52  1  0  0  0  0
 18 19  1  0  0  0  0
 18 53  1  0  0  0  0
 18 54  1  0  0  0  0
 19 20  1  0  0  0  0
 19 55  1  0  0  0  0
 19 56  1  0  0  0  0
 20 21  1  0  0  0  0
 20 57  1  0  0  0  0
 20 58  1  0  0  0  0
 21 22  1  0  0  0  0
 21 59  1  0  0  0  0
 21 60  1  0  0  0  0
 22 23  1  0  0  0  0
 22 61  1  0  0  0  0
 22 62  1  0  0  0  0
 23 63  1  0  0  0  0
 23 64  1  0  0  0  0
 23 65  1  0  0  0  0
M  END
> <PUBCHEM_COMPOUND_CID>
575411

> <PUBCHEM_COMPOUND_CANONICALIZED>
1

> <PUBCHEM_CACTVS_COMPLEXITY>
275

> <PUBCHEM_CACTVS_HBOND_ACCEPTOR>
2

> <PUBCHEM_CACTVS_HBOND_DONOR>
0

> <PUBCHEM_CACTVS_ROTATABLE_BOND>
14

> <PUBCHEM_CACTVS_SUBSKEYS>
AAADcfB4MAAAAAAAAAAAAAAAAAAAASAAAAAAAAAAAAAAAAAAAAAAGgAAAAAADFSwgAMCCAAABAAAAAAAAAAAAAAAAAAAAAAAAAARAAIAAAAiAAAEAAAGAAGAwKAIAAAAAAAAAAAAAAAAAAAAAAAAAAAAAA==

> <PUBCHEM_IUPAC_OPENEYE_NAME>
4,4,5-trimethyl-2-pentadecyl-1,3-dioxolane

> <PUBCHEM_IUPAC_CAS_NAME>
4,4,5-trimethyl-2-pentadecyl-1,3-dioxolane

> <PUBCHEM_IUPAC_NAME_MARKUP>
4,4,5-trimethyl-2-pentadecyl-1,3-dioxolane

> <PUBCHEM_IUPAC_NAME>
4,4,5-trimethyl-2-pentadecyl-1,3-dioxolane

> <PUBCHEM_IUPAC_SYSTEMATIC_NAME>
4,4,5-trimethyl-2-pentadecyl-1,3-dioxolane

> <PUBCHEM_IUPAC_TRADITIONAL_NAME>
4,4,5-trimethyl-2-pentadecyl-1,3-dioxolane

> <PUBCHEM_IUPAC_INCHI>
InChI=1S/C21H42O2/c1-5-6-7-8-9-10-11-12-13-14-15-16-17-18-20-22-19(2)21(3,4)23-20/h19-20H,5-18H2,1-4H3

> <PUBCHEM_IUPAC_INCHIKEY>
FBQXFNAUEZWOIJ-UHFFFAOYSA-N

> <PUBCHEM_XLOGP3_AA>
8.7

> <PUBCHEM_EXACT_MASS>
326.318480578

> <PUBCHEM_MOLECULAR_FORMULA>
C21H42O2

> <PUBCHEM_MOLECULAR_WEIGHT>
326.6

> <PUBCHEM_SMILES>
CCCCCCCCCCCCCCCC1OC(C(O1)(C)C)C

> <PUBCHEM_CONNECTIVITY_SMILES>
CCCCCCCCCCCCCCCC1OC(C(O1)(C)C)C

> <PUBCHEM_CACTVS_TPSA>
18.5

> <PUBCHEM_MONOISOTOPIC_WEIGHT>
326.318480578

> <PUBCHEM_TOTAL_CHARGE>
0

> <PUBCHEM_HEAVY_ATOM_COUNT>
23

> <PUBCHEM_ATOM_DEF_STEREO_COUNT>
0

> <PUBCHEM_ATOM_UDEF_STEREO_COUNT>
2

> <PUBCHEM_BOND_DEF_STEREO_COUNT>
0

> <PUBCHEM_BOND_UDEF_STEREO_COUNT>
0

> <PUBCHEM_ISOTOPIC_ATOM_COUNT>
0

> <PUBCHEM_COMPONENT_COUNT>
1

> <PUBCHEM_CACTVS_TAUTO_COUNT>
-1

> <PUBCHEM_COORDINATE_TYPE>
1
5
255

> <PUBCHEM_BONDANNOTATIONS>
4  24  3
5  25  3

$$$$
