5761588
  -OEChem-05122608132D

 53 58  0     0  0  0  0  0  0999 V2000
    5.5443   -0.3717    0.0000 O   0  0  0  0  0  0  0  0  0  0  0  0
   15.2115    0.3717    0.0000 O   0  0  0  0  0  0  0  0  0  0  0  0
    5.5443    1.2378    0.0000 N   0  0  0  0  0  0  0  0  0  0  0  0
   15.2115   -1.2378    0.0000 N   0  0  0  0  0  0  0  0  0  0  0  0
    4.5981    0.9330    0.0000 C   0  0  0  0  0  0  0  0  0  0  0  0
    4.5981   -0.0670    0.0000 C   0  0  0  0  0  0  0  0  0  0  0  0
    7.1279    0.4330    0.0000 C   0  0  0  0  0  0  0  0  0  0  0  0
    6.1279    0.4330    0.0000 C   0  0  0  0  0  0  0  0  0  0  0  0
   13.6279   -0.4330    0.0000 C   0  0  0  0  0  0  0  0  0  0  0  0
    2.8660    0.9330    0.0000 C   0  0  0  0  0  0  0  0  0  0  0  0
    3.7321    1.4330    0.0000 C   0  0  0  0  0  0  0  0  0  0  0  0
    9.1279    0.4330    0.0000 C   0  0  0  0  0  0  0  0  0  0  0  0
   11.6279   -0.4330    0.0000 C   0  0  0  0  0  0  0  0  0  0  0  0
   14.6279   -0.4330    0.0000 C   0  0  0  0  0  0  0  0  0  0  0  0
    3.7321   -0.5670    0.0000 C   0  0  0  0  0  0  0  0  0  0  0  0
    7.6279   -0.4330    0.0000 C   0  0  0  0  0  0  0  0  0  0  0  0
    7.6279    1.2990    0.0000 C   0  0  0  0  0  0  0  0  0  0  0  0
    2.8660   -0.0670    0.0000 C   0  0  0  0  0  0  0  0  0  0  0  0
    8.6279   -0.4330    0.0000 C   0  0  0  0  0  0  0  0  0  0  0  0
    8.6279    1.2990    0.0000 C   0  0  0  0  0  0  0  0  0  0  0  0
   16.1577    0.0670    0.0000 C   0  0  0  0  0  0  0  0  0  0  0  0
   16.1577   -0.9330    0.0000 C   0  0  0  0  0  0  0  0  0  0  0  0
   13.1279   -1.2990    0.0000 C   0  0  0  0  0  0  0  0  0  0  0  0
   13.1279    0.4330    0.0000 C   0  0  0  0  0  0  0  0  0  0  0  0
   10.1279    0.4330    0.0000 C   0  0  0  0  0  0  0  0  0  0  0  0
   12.1279   -1.2990    0.0000 C   0  0  0  0  0  0  0  0  0  0  0  0
   12.1279    0.4330    0.0000 C   0  0  0  0  0  0  0  0  0  0  0  0
   10.6279   -0.4330    0.0000 C   0  0  0  0  0  0  0  0  0  0  0  0
    2.0000    1.4330    0.0000 C   0  0  0  0  0  0  0  0  0  0  0  0
   17.0238    0.5670    0.0000 C   0  0  0  0  0  0  0  0  0  0  0  0
   17.0238   -1.4330    0.0000 C   0  0  0  0  0  0  0  0  0  0  0  0
   17.8898    0.0670    0.0000 C   0  0  0  0  0  0  0  0  0  0  0  0
   17.8898   -0.9330    0.0000 C   0  0  0  0  0  0  0  0  0  0  0  0
    3.7321    2.0530    0.0000 H   0  0  0  0  0  0  0  0  0  0  0  0
    3.7321   -1.1870    0.0000 H   0  0  0  0  0  0  0  0  0  0  0  0
    7.3179   -0.9699    0.0000 H   0  0  0  0  0  0  0  0  0  0  0  0
    7.3179    1.8360    0.0000 H   0  0  0  0  0  0  0  0  0  0  0  0
    2.3291   -0.3770    0.0000 H   0  0  0  0  0  0  0  0  0  0  0  0
    8.9379   -0.9699    0.0000 H   0  0  0  0  0  0  0  0  0  0  0  0
    8.9379    1.8360    0.0000 H   0  0  0  0  0  0  0  0  0  0  0  0
   13.4379   -1.8360    0.0000 H   0  0  0  0  0  0  0  0  0  0  0  0
   13.4379    0.9699    0.0000 H   0  0  0  0  0  0  0  0  0  0  0  0
   10.4379    0.9699    0.0000 H   0  0  0  0  0  0  0  0  0  0  0  0
   11.8179   -1.8360    0.0000 H   0  0  0  0  0  0  0  0  0  0  0  0
   11.8179    0.9699    0.0000 H   0  0  0  0  0  0  0  0  0  0  0  0
   10.3179   -0.9699    0.0000 H   0  0  0  0  0  0  0  0  0  0  0  0
    2.3100    1.9700    0.0000 H   0  0  0  0  0  0  0  0  0  0  0  0
    1.4631    1.7430    0.0000 H   0  0  0  0  0  0  0  0  0  0  0  0
    1.6900    0.8961    0.0000 H   0  0  0  0  0  0  0  0  0  0  0  0
   17.0238    1.1870    0.0000 H   0  0  0  0  0  0  0  0  0  0  0  0
   17.0238   -2.0530    0.0000 H   0  0  0  0  0  0  0  0  0  0  0  0
   18.4267    0.3770    0.0000 H   0  0  0  0  0  0  0  0  0  0  0  0
   18.4267   -1.2430    0.0000 H   0  0  0  0  0  0  0  0  0  0  0  0
  1  6  1  0  0  0  0
  1  8  1  0  0  0  0
  2 14  1  0  0  0  0
  2 21  1  0  0  0  0
  3  5  1  0  0  0  0
  3  8  2  0  0  0  0
  4 14  2  0  0  0  0
  4 22  1  0  0  0  0
  5  6  2  0  0  0  0
  5 11  1  0  0  0  0
  6 15  1  0  0  0  0
  7  8  1  0  0  0  0
  7 16  2  0  0  0  0
  7 17  1  0  0  0  0
  9 14  1  0  0  0  0
  9 23  2  0  0  0  0
  9 24  1  0  0  0  0
 10 11  2  0  0  0  0
 10 18  1  0  0  0  0
 10 29  1  0  0  0  0
 11 34  1  0  0  0  0
 12 19  2  0  0  0  0
 12 20  1  0  0  0  0
 12 25  1  0  0  0  0
 13 26  2  0  0  0  0
 13 27  1  0  0  0  0
 13 28  1  0  0  0  0
 15 18  2  0  0  0  0
 15 35  1  0  0  0  0
 16 19  1  0  0  0  0
 16 36  1  0  0  0  0
 17 20  2  0  0  0  0
 17 37  1  0  0  0  0
 18 38  1  0  0  0  0
 19 39  1  0  0  0  0
 20 40  1  0  0  0  0
 21 22  1  0  0  0  0
 21 30  2  0  0  0  0
 22 31  2  0  0  0  0
 23 26  1  0  0  0  0
 23 41  1  0  0  0  0
 24 27  2  0  0  0  0
 24 42  1  0  0  0  0
 25 28  2  0  0  0  0
 25 43  1  0  0  0  0
 26 44  1  0  0  0  0
 27 45  1  0  0  0  0
 28 46  1  0  0  0  0
 29 47  1  0  0  0  0
 29 48  1  0  0  0  0
 29 49  1  0  0  0  0
 30 32  1  0  0  0  0
 30 50  1  0  0  0  0
 31 33  1  0  0  0  0
 31 51  1  0  0  0  0
 32 33  2  0  0  0  0
 32 52  1  0  0  0  0
 33 53  1  0  0  0  0
M  END
> <PUBCHEM_COMPOUND_CID>
5761588

> <PUBCHEM_COMPOUND_CANONICALIZED>
1

> <PUBCHEM_CACTVS_COMPLEXITY>
667

> <PUBCHEM_CACTVS_HBOND_ACCEPTOR>
4

> <PUBCHEM_CACTVS_HBOND_DONOR>
0

> <PUBCHEM_CACTVS_ROTATABLE_BOND>
4

> <PUBCHEM_CACTVS_SUBSKEYS>
AAADceB7MAAAAAAAAAAAAAAAAAAAAWLAAAAwYMGAAAAAAFgB/gAAHgAAAAAADAyBngAyxrIIFECoA6VyVASCiCAvYiAImCG3bNgOJrLEtbuPOSjkxBHY6YeYyDCOYAAAQAAAEADAAACAAAAgAAAAAAAAAA==

> <PUBCHEM_IUPAC_OPENEYE_NAME>
2-[4-[(E)-2-[4-(1,3-benzoxazol-2-yl)phenyl]vinyl]phenyl]-5-methyl-1,3-benzoxazole

> <PUBCHEM_IUPAC_CAS_NAME>
2-[4-[(E)-2-[4-(1,3-benzoxazol-2-yl)phenyl]ethenyl]phenyl]-5-methyl-1,3-benzoxazole

> <PUBCHEM_IUPAC_NAME_MARKUP>
2-[4-[(<I>E</I>)-2-[4-(1,3-benzoxazol-2-yl)phenyl]ethenyl]phenyl]-5-methyl-1,3-benzoxazole

> <PUBCHEM_IUPAC_NAME>
2-[4-[(E)-2-[4-(1,3-benzoxazol-2-yl)phenyl]ethenyl]phenyl]-5-methyl-1,3-benzoxazole

> <PUBCHEM_IUPAC_SYSTEMATIC_NAME>
2-[4-[(E)-2-[4-(1,3-benzoxazol-2-yl)phenyl]ethenyl]phenyl]-5-methyl-1,3-benzoxazole

> <PUBCHEM_IUPAC_TRADITIONAL_NAME>
2-[4-[(E)-2-[4-(1,3-benzoxazol-2-yl)phenyl]vinyl]phenyl]-5-methyl-1,3-benzoxazole

> <PUBCHEM_IUPAC_INCHI>
InChI=1S/C29H20N2O2/c1-19-6-17-27-25(18-19)31-29(33-27)23-15-11-21(12-16-23)8-7-20-9-13-22(14-10-20)28-30-24-4-2-3-5-26(24)32-28/h2-18H,1H3/b8-7+

> <PUBCHEM_IUPAC_INCHIKEY>
SOTPOQQKAUOHRO-BQYQJAHWSA-N

> <PUBCHEM_XLOGP3_AA>
7.6

> <PUBCHEM_EXACT_MASS>
428.152477885

> <PUBCHEM_MOLECULAR_FORMULA>
C29H20N2O2

> <PUBCHEM_MOLECULAR_WEIGHT>
428.5

> <PUBCHEM_SMILES>
CC1=CC2=C(C=C1)OC(=N2)C3=CC=C(C=C3)/C=C/C4=CC=C(C=C4)C5=NC6=CC=CC=C6O5

> <PUBCHEM_CONNECTIVITY_SMILES>
CC1=CC2=C(C=C1)OC(=N2)C3=CC=C(C=C3)C=CC4=CC=C(C=C4)C5=NC6=CC=CC=C6O5

> <PUBCHEM_CACTVS_TPSA>
52.1

> <PUBCHEM_MONOISOTOPIC_WEIGHT>
428.152477885

> <PUBCHEM_TOTAL_CHARGE>
0

> <PUBCHEM_HEAVY_ATOM_COUNT>
33

> <PUBCHEM_ATOM_DEF_STEREO_COUNT>
0

> <PUBCHEM_ATOM_UDEF_STEREO_COUNT>
0

> <PUBCHEM_BOND_DEF_STEREO_COUNT>
1

> <PUBCHEM_BOND_UDEF_STEREO_COUNT>
0

> <PUBCHEM_ISOTOPIC_ATOM_COUNT>
0

> <PUBCHEM_COMPONENT_COUNT>
1

> <PUBCHEM_CACTVS_TAUTO_COUNT>
-1

> <PUBCHEM_COORDINATE_TYPE>
1
5
255

> <PUBCHEM_BONDANNOTATIONS>
1  6  8
1  8  8
10  11  8
10  18  8
12  19  8
12  20  8
13  26  8
13  27  8
15  18  8
16  19  8
17  20  8
2  14  8
2  21  8
21  22  8
21  30  8
22  31  8
23  26  8
24  27  8
3  5  8
3  8  8
30  32  8
31  33  8
32  33  8
4  14  8
4  22  8
5  11  8
5  6  8
6  15  8
7  16  8
7  17  8
9  23  8
9  24  8

$$$$
