576940
  -OEChem-08032615182D

 31 31  0     0  0  0  0  0  0999 V2000
    2.0000    1.2500    0.0000 O   0  0  0  0  0  0  0  0  0  0  0  0
    3.7321    1.2500    0.0000 N   0  0  0  0  0  0  0  0  0  0  0  0
    3.7321    2.2500    0.0000 C   0  0  0  0  0  0  0  0  0  0  0  0
    3.7321    3.2500    0.0000 C   0  0  0  0  0  0  0  0  0  0  0  0
    4.7321    2.2500    0.0000 C   0  0  0  0  0  0  0  0  0  0  0  0
    2.7321    2.2500    0.0000 C   0  0  0  0  0  0  0  0  0  0  0  0
    2.8660    0.7500    0.0000 C   0  0  0  0  0  0  0  0  0  0  0  0
    2.8660   -0.2500    0.0000 C   0  0  0  0  0  0  0  0  0  0  0  0
    3.7321   -0.7500    0.0000 C   0  0  0  0  0  0  0  0  0  0  0  0
    2.0000   -0.7500    0.0000 C   0  0  0  0  0  0  0  0  0  0  0  0
    2.8660   -2.2500    0.0000 C   0  0  0  0  0  0  0  0  0  0  0  0
    3.7321   -1.7500    0.0000 C   0  0  0  0  0  0  0  0  0  0  0  0
    2.0000   -1.7500    0.0000 C   0  0  0  0  0  0  0  0  0  0  0  0
    2.8660   -3.2500    0.0000 C   0  0  0  0  0  0  0  0  0  0  0  0
    4.3521    3.2500    0.0000 H   0  0  0  0  0  0  0  0  0  0  0  0
    3.7321    3.8700    0.0000 H   0  0  0  0  0  0  0  0  0  0  0  0
    3.1121    3.2500    0.0000 H   0  0  0  0  0  0  0  0  0  0  0  0
    4.7321    1.6300    0.0000 H   0  0  0  0  0  0  0  0  0  0  0  0
    5.3521    2.2500    0.0000 H   0  0  0  0  0  0  0  0  0  0  0  0
    4.7321    2.8700    0.0000 H   0  0  0  0  0  0  0  0  0  0  0  0
    2.7321    2.8700    0.0000 H   0  0  0  0  0  0  0  0  0  0  0  0
    2.1121    2.2500    0.0000 H   0  0  0  0  0  0  0  0  0  0  0  0
    2.7321    1.6300    0.0000 H   0  0  0  0  0  0  0  0  0  0  0  0
    4.2690    0.9400    0.0000 H   0  0  0  0  0  0  0  0  0  0  0  0
    4.2690   -0.4400    0.0000 H   0  0  0  0  0  0  0  0  0  0  0  0
    1.4631   -0.4400    0.0000 H   0  0  0  0  0  0  0  0  0  0  0  0
    4.2690   -2.0600    0.0000 H   0  0  0  0  0  0  0  0  0  0  0  0
    1.4631   -2.0600    0.0000 H   0  0  0  0  0  0  0  0  0  0  0  0
    2.2460   -3.2500    0.0000 H   0  0  0  0  0  0  0  0  0  0  0  0
    2.8660   -3.8700    0.0000 H   0  0  0  0  0  0  0  0  0  0  0  0
    3.4860   -3.2500    0.0000 H   0  0  0  0  0  0  0  0  0  0  0  0
  1  7  2  0  0  0  0
  2  3  1  0  0  0  0
  2  7  1  0  0  0  0
  2 24  1  0  0  0  0
  3  4  1  0  0  0  0
  3  5  1  0  0  0  0
  3  6  1  0  0  0  0
  4 15  1  0  0  0  0
  4 16  1  0  0  0  0
  4 17  1  0  0  0  0
  5 18  1  0  0  0  0
  5 19  1  0  0  0  0
  5 20  1  0  0  0  0
  6 21  1  0  0  0  0
  6 22  1  0  0  0  0
  6 23  1  0  0  0  0
  7  8  1  0  0  0  0
  8  9  2  0  0  0  0
  8 10  1  0  0  0  0
  9 12  1  0  0  0  0
  9 25  1  0  0  0  0
 10 13  2  0  0  0  0
 10 26  1  0  0  0  0
 11 12  2  0  0  0  0
 11 13  1  0  0  0  0
 11 14  1  0  0  0  0
 12 27  1  0  0  0  0
 13 28  1  0  0  0  0
 14 29  1  0  0  0  0
 14 30  1  0  0  0  0
 14 31  1  0  0  0  0
M  END
> <PUBCHEM_COMPOUND_CID>
576940

> <PUBCHEM_COMPOUND_CANONICALIZED>
1

> <PUBCHEM_CACTVS_COMPLEXITY>
197

> <PUBCHEM_CACTVS_HBOND_ACCEPTOR>
1

> <PUBCHEM_CACTVS_HBOND_DONOR>
1

> <PUBCHEM_CACTVS_ROTATABLE_BOND>
2

> <PUBCHEM_CACTVS_SUBSKEYS>
AAADceByIAAAAAAAAAAAAAAAAAAAAAAAAAAwAAAAAAAAAAABAAAAHgAQAAAADIiBmAAyAILAAACIAiFSEACCAAAkAAAIiAEABMgIIDKAlRGEIQhglACIiYcYiACOQAAAAAAAAACAAAAAAAAAAAAAAAAAAA==

> <PUBCHEM_IUPAC_OPENEYE_NAME>
N-tert-butyl-4-methyl-benzamide

> <PUBCHEM_IUPAC_CAS_NAME>
N-tert-butyl-4-methylbenzamide

> <PUBCHEM_IUPAC_NAME_MARKUP>
<I>N</I>-<I>tert</I>-butyl-4-methylbenzamide

> <PUBCHEM_IUPAC_NAME>
N-tert-butyl-4-methylbenzamide

> <PUBCHEM_IUPAC_SYSTEMATIC_NAME>
N-tert-butyl-4-methyl-benzamide

> <PUBCHEM_IUPAC_TRADITIONAL_NAME>
N-tert-butyl-4-methyl-benzamide

> <PUBCHEM_IUPAC_INCHI>
InChI=1S/C12H17NO/c1-9-5-7-10(8-6-9)11(14)13-12(2,3)4/h5-8H,1-4H3,(H,13,14)

> <PUBCHEM_IUPAC_INCHIKEY>
BHVOUXZTZXPBQA-UHFFFAOYSA-N

> <PUBCHEM_XLOGP3>
2.5

> <PUBCHEM_EXACT_MASS>
191.131014166

> <PUBCHEM_MOLECULAR_FORMULA>
C12H17NO

> <PUBCHEM_MOLECULAR_WEIGHT>
191.27

> <PUBCHEM_SMILES>
CC1=CC=C(C=C1)C(=O)NC(C)(C)C

> <PUBCHEM_CONNECTIVITY_SMILES>
CC1=CC=C(C=C1)C(=O)NC(C)(C)C

> <PUBCHEM_CACTVS_TPSA>
29.1

> <PUBCHEM_MONOISOTOPIC_WEIGHT>
191.131014166

> <PUBCHEM_TOTAL_CHARGE>
0

> <PUBCHEM_HEAVY_ATOM_COUNT>
14

> <PUBCHEM_ATOM_DEF_STEREO_COUNT>
0

> <PUBCHEM_ATOM_UDEF_STEREO_COUNT>
0

> <PUBCHEM_BOND_DEF_STEREO_COUNT>
0

> <PUBCHEM_BOND_UDEF_STEREO_COUNT>
0

> <PUBCHEM_ISOTOPIC_ATOM_COUNT>
0

> <PUBCHEM_COMPONENT_COUNT>
1

> <PUBCHEM_CACTVS_TAUTO_COUNT>
-1

> <PUBCHEM_COORDINATE_TYPE>
1
5
255

> <PUBCHEM_BONDANNOTATIONS>
10  13  8
11  12  8
11  13  8
8  10  8
8  9  8
9  12  8

$$$$
