578236
  -OEChem-05122608492D

 26 27  0     1  0  0  0  0  0999 V2000
    3.5388    0.1830    0.0000 C   0  0  3  0  0  0  0  0  0  0  0  0
    3.5388   -0.8170    0.0000 C   0  0  3  0  0  0  0  0  0  0  0  0
    4.4054   -0.3170    0.0000 C   0  0  0  0  0  0  0  0  0  0  0  0
    2.5878    0.4920    0.0000 C   0  0  0  0  0  0  0  0  0  0  0  0
    2.5878   -1.1260    0.0000 C   0  0  0  0  0  0  0  0  0  0  0  0
    2.0000   -0.3170    0.0000 C   0  0  0  0  0  0  0  0  0  0  0  0
    3.5388    1.1830    0.0000 C   0  0  0  0  0  0  0  0  0  0  0  0
    5.4054   -0.3170    0.0000 C   0  0  0  0  0  0  0  0  0  0  0  0
    5.9054   -1.1830    0.0000 C   0  0  0  0  0  0  0  0  0  0  0  0
    5.9054    0.5490    0.0000 C   0  0  0  0  0  0  0  0  0  0  0  0
    3.7910   -1.3834    0.0000 H   0  0  0  0  0  0  0  0  0  0  0  0
    2.8400    1.0584    0.0000 H   0  0  0  0  0  0  0  0  0  0  0  0
    2.0509    0.8020    0.0000 H   0  0  0  0  0  0  0  0  0  0  0  0
    2.0509   -1.4360    0.0000 H   0  0  0  0  0  0  0  0  0  0  0  0
    2.8400   -1.6924    0.0000 H   0  0  0  0  0  0  0  0  0  0  0  0
    1.5393    0.0979    0.0000 H   0  0  0  0  0  0  0  0  0  0  0  0
    1.5393   -0.7318    0.0000 H   0  0  0  0  0  0  0  0  0  0  0  0
    4.1588    1.1830    0.0000 H   0  0  0  0  0  0  0  0  0  0  0  0
    3.5388    1.8030    0.0000 H   0  0  0  0  0  0  0  0  0  0  0  0
    2.9188    1.1830    0.0000 H   0  0  0  0  0  0  0  0  0  0  0  0
    5.3684   -1.4930    0.0000 H   0  0  0  0  0  0  0  0  0  0  0  0
    6.2154   -1.7200    0.0000 H   0  0  0  0  0  0  0  0  0  0  0  0
    6.4423   -0.8730    0.0000 H   0  0  0  0  0  0  0  0  0  0  0  0
    6.4423    0.2390    0.0000 H   0  0  0  0  0  0  0  0  0  0  0  0
    6.2154    1.0860    0.0000 H   0  0  0  0  0  0  0  0  0  0  0  0
    5.3684    0.8590    0.0000 H   0  0  0  0  0  0  0  0  0  0  0  0
  1  2  1  0  0  0  0
  1  3  1  0  0  0  0
  1  4  1  0  0  0  0
  1  7  1  0  0  0  0
  2  3  1  0  0  0  0
  2  5  1  0  0  0  0
  2 11  1  0  0  0  0
  3  8  2  0  0  0  0
  4  6  1  0  0  0  0
  4 12  1  0  0  0  0
  4 13  1  0  0  0  0
  5  6  1  0  0  0  0
  5 14  1  0  0  0  0
  5 15  1  0  0  0  0
  6 16  1  0  0  0  0
  6 17  1  0  0  0  0
  7 18  1  0  0  0  0
  7 19  1  0  0  0  0
  7 20  1  0  0  0  0
  8  9  1  0  0  0  0
  8 10  1  0  0  0  0
  9 21  1  0  0  0  0
  9 22  1  0  0  0  0
  9 23  1  0  0  0  0
 10 24  1  0  0  0  0
 10 25  1  0  0  0  0
 10 26  1  0  0  0  0
M  END
> <PUBCHEM_COMPOUND_CID>
578236

> <PUBCHEM_COMPOUND_CANONICALIZED>
1

> <PUBCHEM_CACTVS_COMPLEXITY>
196

> <PUBCHEM_CACTVS_HBOND_ACCEPTOR>
0

> <PUBCHEM_CACTVS_HBOND_DONOR>
0

> <PUBCHEM_CACTVS_ROTATABLE_BOND>
0

> <PUBCHEM_CACTVS_SUBSKEYS>
AAADceBwAAAAAAAAAAAAAAAAGAAAAYAAAAAwAAAAAAAAAAAAAAAAGAAAAAAADwCAAAACAAAAAACAAgBAAAAAAAAgAAAACAAAAAgAAAIAAAAAAAAAgAAIAAMAgAAPgAAAAAAAAAAAAAAAAAAAAAAACAAAAA==

> <PUBCHEM_IUPAC_OPENEYE_NAME>
6-isopropylidene-1-methyl-bicyclo[3.1.0]hexane

> <PUBCHEM_IUPAC_CAS_NAME>
1-methyl-6-propan-2-ylidenebicyclo[3.1.0]hexane

> <PUBCHEM_IUPAC_NAME_MARKUP>
1-methyl-6-propan-2-ylidenebicyclo[3.1.0]hexane

> <PUBCHEM_IUPAC_NAME>
1-methyl-6-propan-2-ylidenebicyclo[3.1.0]hexane

> <PUBCHEM_IUPAC_SYSTEMATIC_NAME>
1-methyl-6-propan-2-ylidene-bicyclo[3.1.0]hexane

> <PUBCHEM_IUPAC_TRADITIONAL_NAME>
6-isopropylidene-1-methyl-bicyclo[3.1.0]hexane

> <PUBCHEM_IUPAC_INCHI>
InChI=1S/C10H16/c1-7(2)9-8-5-4-6-10(8,9)3/h8H,4-6H2,1-3H3

> <PUBCHEM_IUPAC_INCHIKEY>
CSIZHOMQBOGEAV-UHFFFAOYSA-N

> <PUBCHEM_XLOGP3_AA>
3.4

> <PUBCHEM_EXACT_MASS>
136.125200510

> <PUBCHEM_MOLECULAR_FORMULA>
C10H16

> <PUBCHEM_MOLECULAR_WEIGHT>
136.23

> <PUBCHEM_SMILES>
CC(=C1C2C1(CCC2)C)C

> <PUBCHEM_CONNECTIVITY_SMILES>
CC(=C1C2C1(CCC2)C)C

> <PUBCHEM_CACTVS_TPSA>
0

> <PUBCHEM_MONOISOTOPIC_WEIGHT>
136.125200510

> <PUBCHEM_TOTAL_CHARGE>
0

> <PUBCHEM_HEAVY_ATOM_COUNT>
10

> <PUBCHEM_ATOM_DEF_STEREO_COUNT>
0

> <PUBCHEM_ATOM_UDEF_STEREO_COUNT>
2

> <PUBCHEM_BOND_DEF_STEREO_COUNT>
0

> <PUBCHEM_BOND_UDEF_STEREO_COUNT>
0

> <PUBCHEM_ISOTOPIC_ATOM_COUNT>
0

> <PUBCHEM_COMPONENT_COUNT>
1

> <PUBCHEM_CACTVS_TAUTO_COUNT>
-1

> <PUBCHEM_COORDINATE_TYPE>
1
5
255

> <PUBCHEM_BONDANNOTATIONS>
1  7  3
2  5  3

$$$$
