57934602
  -OEChem-05122608252D

138143  0     1  0  0  0  0  0999 V2000
    6.8684  -10.7500    0.0000 O   0  0  0  0  0  0  0  0  0  0  0  0
    9.4665   10.7500    0.0000 O   0  0  0  0  0  0  0  0  0  0  0  0
    7.7345   -1.2500    0.0000 O   0  0  0  0  0  0  0  0  0  0  0  0
    8.6005    1.2500    0.0000 O   0  0  0  0  0  0  0  0  0  0  0  0
    6.0024   -1.2500    0.0000 O   0  0  0  0  0  0  0  0  0  0  0  0
   10.3325    1.2500    0.0000 O   0  0  0  0  0  0  0  0  0  0  0  0
    6.0024   -4.2500    0.0000 N   0  0  0  0  0  0  0  0  0  0  0  0
   10.3325    4.2500    0.0000 N   0  0  0  0  0  0  0  0  0  0  0  0
    6.0024   -6.2500    0.0000 N   0  0  0  0  0  0  0  0  0  0  0  0
   10.3325    6.2500    0.0000 N   0  0  0  0  0  0  0  0  0  0  0  0
    5.6364  -11.6160    0.0000 N   0  0  0  0  0  0  0  0  0  0  0  0
   10.6986   11.6160    0.0000 N   0  0  0  0  0  0  0  0  0  0  0  0
    5.1364  -10.7500    0.0000 C   0  0  3  0  0  0  0  0  0  0  0  0
   11.1986   10.7500    0.0000 C   0  0  3  0  0  0  0  0  0  0  0  0
    5.1364   -4.7500    0.0000 C   0  0  0  0  0  0  0  0  0  0  0  0
    6.8684   -4.7500    0.0000 C   0  0  0  0  0  0  0  0  0  0  0  0
   11.1986    4.7500    0.0000 C   0  0  0  0  0  0  0  0  0  0  0  0
    9.4665    4.7500    0.0000 C   0  0  0  0  0  0  0  0  0  0  0  0
    5.1364   -5.7500    0.0000 C   0  0  0  0  0  0  0  0  0  0  0  0
    6.8684   -5.7500    0.0000 C   0  0  0  0  0  0  0  0  0  0  0  0
   11.1986    5.7500    0.0000 C   0  0  0  0  0  0  0  0  0  0  0  0
    9.4665    5.7500    0.0000 C   0  0  0  0  0  0  0  0  0  0  0  0
    4.2704  -11.2500    0.0000 C   0  0  0  0  0  0  0  0  0  0  0  0
   12.0646   11.2500    0.0000 C   0  0  0  0  0  0  0  0  0  0  0  0
    4.6364   -9.8840    0.0000 C   0  0  0  0  0  0  0  0  0  0  0  0
   11.6986    9.8840    0.0000 C   0  0  0  0  0  0  0  0  0  0  0  0
    6.0024  -10.2500    0.0000 C   0  0  0  0  0  0  0  0  0  0  0  0
   10.3325   10.2500    0.0000 C   0  0  0  0  0  0  0  0  0  0  0  0
    6.0024   -3.2500    0.0000 C   0  0  0  0  0  0  0  0  0  0  0  0
   10.3325    3.2500    0.0000 C   0  0  0  0  0  0  0  0  0  0  0  0
    6.0024   -7.2500    0.0000 C   0  0  0  0  0  0  0  0  0  0  0  0
   10.3325    7.2500    0.0000 C   0  0  0  0  0  0  0  0  0  0  0  0
    6.0024   -9.2500    0.0000 C   0  0  0  0  0  0  0  0  0  0  0  0
   10.3325    9.2500    0.0000 C   0  0  0  0  0  0  0  0  0  0  0  0
    3.6276  -12.0161    0.0000 C   0  0  0  0  0  0  0  0  0  0  0  0
   12.7074   12.0160    0.0000 C   0  0  0  0  0  0  0  0  0  0  0  0
    3.6364   -9.8840    0.0000 C   0  0  0  0  0  0  0  0  0  0  0  0
   12.6986    9.8840    0.0000 C   0  0  0  0  0  0  0  0  0  0  0  0
    5.1364   -7.7500    0.0000 C   0  0  0  0  0  0  0  0  0  0  0  0
   11.1986    7.7500    0.0000 C   0  0  0  0  0  0  0  0  0  0  0  0
    6.8684   -7.7500    0.0000 C   0  0  0  0  0  0  0  0  0  0  0  0
    9.4665    7.7500    0.0000 C   0  0  0  0  0  0  0  0  0  0  0  0
    6.6364  -11.6160    0.0000 C   0  0  0  0  0  0  0  0  0  0  0  0
    5.8101  -12.6008    0.0000 C   0  0  0  0  0  0  0  0  0  0  0  0
    9.6986   11.6160    0.0000 C   0  0  0  0  0  0  0  0  0  0  0  0
   10.5249   12.6008    0.0000 C   0  0  0  0  0  0  0  0  0  0  0  0
    6.8684   -2.7500    0.0000 C   0  0  0  0  0  0  0  0  0  0  0  0
    9.4665    2.7500    0.0000 C   0  0  0  0  0  0  0  0  0  0  0  0
    5.1364   -8.7500    0.0000 C   0  0  0  0  0  0  0  0  0  0  0  0
   11.1986    8.7500    0.0000 C   0  0  0  0  0  0  0  0  0  0  0  0
    6.8684   -8.7500    0.0000 C   0  0  0  0  0  0  0  0  0  0  0  0
    9.4665    8.7500    0.0000 C   0  0  0  0  0  0  0  0  0  0  0  0
    2.6428  -11.8424    0.0000 C   0  0  0  0  0  0  0  0  0  0  0  0
   13.6922   11.8424    0.0000 C   0  0  0  0  0  0  0  0  0  0  0  0
    3.9696  -12.9557    0.0000 C   0  0  0  0  0  0  0  0  0  0  0  0
   12.3653   12.9557    0.0000 C   0  0  0  0  0  0  0  0  0  0  0  0
    6.8684   -1.7500    0.0000 C   0  0  0  0  0  0  0  0  0  0  0  0
    9.4665    1.7500    0.0000 C   0  0  0  0  0  0  0  0  0  0  0  0
    2.0000  -12.6085    0.0000 C   0  0  0  0  0  0  0  0  0  0  0  0
   14.3350   12.6084    0.0000 C   0  0  0  0  0  0  0  0  0  0  0  0
    3.3268  -13.7218    0.0000 C   0  0  0  0  0  0  0  0  0  0  0  0
   13.0081   13.7218    0.0000 C   0  0  0  0  0  0  0  0  0  0  0  0
    2.3421  -13.5482    0.0000 C   0  0  0  0  0  0  0  0  0  0  0  0
   13.9929   13.5481    0.0000 C   0  0  0  0  0  0  0  0  0  0  0  0
    7.7345   -0.2500    0.0000 C   0  0  0  0  0  0  0  0  0  0  0  0
    8.6005    0.2500    0.0000 C   0  0  0  0  0  0  0  0  0  0  0  0
    4.9243   -4.1674    0.0000 H   0  0  0  0  0  0  0  0  0  0  0  0
    4.5258   -4.8577    0.0000 H   0  0  0  0  0  0  0  0  0  0  0  0
    7.4790   -4.8577    0.0000 H   0  0  0  0  0  0  0  0  0  0  0  0
    7.0805   -4.1674    0.0000 H   0  0  0  0  0  0  0  0  0  0  0  0
   11.4106    4.1674    0.0000 H   0  0  0  0  0  0  0  0  0  0  0  0
   11.8091    4.8577    0.0000 H   0  0  0  0  0  0  0  0  0  0  0  0
    8.8559    4.8577    0.0000 H   0  0  0  0  0  0  0  0  0  0  0  0
    9.2545    4.1674    0.0000 H   0  0  0  0  0  0  0  0  0  0  0  0
    4.5258   -5.6423    0.0000 H   0  0  0  0  0  0  0  0  0  0  0  0
    4.9243   -6.3326    0.0000 H   0  0  0  0  0  0  0  0  0  0  0  0
    7.0805   -6.3326    0.0000 H   0  0  0  0  0  0  0  0  0  0  0  0
    7.4790   -5.6423    0.0000 H   0  0  0  0  0  0  0  0  0  0  0  0
   11.8091    5.6423    0.0000 H   0  0  0  0  0  0  0  0  0  0  0  0
   11.4106    6.3326    0.0000 H   0  0  0  0  0  0  0  0  0  0  0  0
    9.2545    6.3326    0.0000 H   0  0  0  0  0  0  0  0  0  0  0  0
    8.8559    5.6423    0.0000 H   0  0  0  0  0  0  0  0  0  0  0  0
    4.1984  -10.6342    0.0000 H   0  0  0  0  0  0  0  0  0  0  0  0
    4.6689  -11.7249    0.0000 H   0  0  0  0  0  0  0  0  0  0  0  0
   12.1366   10.6342    0.0000 H   0  0  0  0  0  0  0  0  0  0  0  0
   11.6661   11.7249    0.0000 H   0  0  0  0  0  0  0  0  0  0  0  0
    5.2190   -9.6719    0.0000 H   0  0  0  0  0  0  0  0  0  0  0  0
    4.5287   -9.2734    0.0000 H   0  0  0  0  0  0  0  0  0  0  0  0
   11.1159    9.6719    0.0000 H   0  0  0  0  0  0  0  0  0  0  0  0
   11.8062    9.2734    0.0000 H   0  0  0  0  0  0  0  0  0  0  0  0
    5.7904   -2.6674    0.0000 H   0  0  0  0  0  0  0  0  0  0  0  0
    5.3918   -3.3577    0.0000 H   0  0  0  0  0  0  0  0  0  0  0  0
   10.5446    2.6674    0.0000 H   0  0  0  0  0  0  0  0  0  0  0  0
   10.9431    3.3577    0.0000 H   0  0  0  0  0  0  0  0  0  0  0  0
    3.6364   -9.2640    0.0000 H   0  0  0  0  0  0  0  0  0  0  0  0
    3.0164   -9.8840    0.0000 H   0  0  0  0  0  0  0  0  0  0  0  0
    3.6364  -10.5040    0.0000 H   0  0  0  0  0  0  0  0  0  0  0  0
   12.6986    9.2640    0.0000 H   0  0  0  0  0  0  0  0  0  0  0  0
   13.3186    9.8840    0.0000 H   0  0  0  0  0  0  0  0  0  0  0  0
   12.6986   10.5040    0.0000 H   0  0  0  0  0  0  0  0  0  0  0  0
    4.5994   -7.4400    0.0000 H   0  0  0  0  0  0  0  0  0  0  0  0
   11.7355    7.4400    0.0000 H   0  0  0  0  0  0  0  0  0  0  0  0
    7.4054   -7.4400    0.0000 H   0  0  0  0  0  0  0  0  0  0  0  0
    8.9296    7.4400    0.0000 H   0  0  0  0  0  0  0  0  0  0  0  0
    6.6364  -12.2360    0.0000 H   0  0  0  0  0  0  0  0  0  0  0  0
    7.2564  -11.6160    0.0000 H   0  0  0  0  0  0  0  0  0  0  0  0
    6.6364  -10.9960    0.0000 H   0  0  0  0  0  0  0  0  0  0  0  0
    5.1995  -12.7085    0.0000 H   0  0  0  0  0  0  0  0  0  0  0  0
    5.9178  -13.2114    0.0000 H   0  0  0  0  0  0  0  0  0  0  0  0
    6.4206  -12.4931    0.0000 H   0  0  0  0  0  0  0  0  0  0  0  0
    9.6986   12.2360    0.0000 H   0  0  0  0  0  0  0  0  0  0  0  0
    9.0786   11.6160    0.0000 H   0  0  0  0  0  0  0  0  0  0  0  0
    9.6986   10.9960    0.0000 H   0  0  0  0  0  0  0  0  0  0  0  0
   11.1355   12.7085    0.0000 H   0  0  0  0  0  0  0  0  0  0  0  0
   10.4172   13.2114    0.0000 H   0  0  0  0  0  0  0  0  0  0  0  0
    9.9143   12.4932    0.0000 H   0  0  0  0  0  0  0  0  0  0  0  0
    7.0805   -3.3326    0.0000 H   0  0  0  0  0  0  0  0  0  0  0  0
    7.4790   -2.6423    0.0000 H   0  0  0  0  0  0  0  0  0  0  0  0
    9.2545    3.3326    0.0000 H   0  0  0  0  0  0  0  0  0  0  0  0
    8.8559    2.6423    0.0000 H   0  0  0  0  0  0  0  0  0  0  0  0
    4.5994   -9.0600    0.0000 H   0  0  0  0  0  0  0  0  0  0  0  0
   11.7355    9.0600    0.0000 H   0  0  0  0  0  0  0  0  0  0  0  0
    7.4054   -9.0600    0.0000 H   0  0  0  0  0  0  0  0  0  0  0  0
    8.9296    9.0600    0.0000 H   0  0  0  0  0  0  0  0  0  0  0  0
    2.4307  -11.2598    0.0000 H   0  0  0  0  0  0  0  0  0  0  0  0
   13.9042   11.2598    0.0000 H   0  0  0  0  0  0  0  0  0  0  0  0
    4.5802  -13.0634    0.0000 H   0  0  0  0  0  0  0  0  0  0  0  0
   11.7548   13.0634    0.0000 H   0  0  0  0  0  0  0  0  0  0  0  0
    1.3894  -12.5009    0.0000 H   0  0  0  0  0  0  0  0  0  0  0  0
   14.9455   12.5008    0.0000 H   0  0  0  0  0  0  0  0  0  0  0  0
    3.5389  -14.3044    0.0000 H   0  0  0  0  0  0  0  0  0  0  0  0
   12.7961   14.3044    0.0000 H   0  0  0  0  0  0  0  0  0  0  0  0
    1.9436  -14.0232    0.0000 H   0  0  0  0  0  0  0  0  0  0  0  0
   14.3915   14.0231    0.0000 H   0  0  0  0  0  0  0  0  0  0  0  0
    7.5224    0.3326    0.0000 H   0  0  0  0  0  0  0  0  0  0  0  0
    7.1239   -0.3577    0.0000 H   0  0  0  0  0  0  0  0  0  0  0  0
    8.8125   -0.3326    0.0000 H   0  0  0  0  0  0  0  0  0  0  0  0
    9.2111    0.3577    0.0000 H   0  0  0  0  0  0  0  0  0  0  0  0
  1 27  2  0  0  0  0
  2 28  2  0  0  0  0
  3 57  1  0  0  0  0
  3 65  1  0  0  0  0
  4 58  1  0  0  0  0
  4 66  1  0  0  0  0
  5 57  2  0  0  0  0
  6 58  2  0  0  0  0
  7 15  1  0  0  0  0
  7 16  1  0  0  0  0
  7 29  1  0  0  0  0
  8 17  1  0  0  0  0
  8 18  1  0  0  0  0
  8 30  1  0  0  0  0
  9 19  1  0  0  0  0
  9 20  1  0  0  0  0
  9 31  1  0  0  0  0
 10 21  1  0  0  0  0
 10 22  1  0  0  0  0
 10 32  1  0  0  0  0
 11 13  1  0  0  0  0
 11 43  1  0  0  0  0
 11 44  1  0  0  0  0
 12 14  1  0  0  0  0
 12 45  1  0  0  0  0
 12 46  1  0  0  0  0
 13 23  1  0  0  0  0
 13 25  1  0  0  0  0
 13 27  1  0  0  0  0
 14 24  1  0  0  0  0
 14 26  1  0  0  0  0
 14 28  1  0  0  0  0
 15 19  1  0  0  0  0
 15 67  1  0  0  0  0
 15 68  1  0  0  0  0
 16 20  1  0  0  0  0
 16 69  1  0  0  0  0
 16 70  1  0  0  0  0
 17 21  1  0  0  0  0
 17 71  1  0  0  0  0
 17 72  1  0  0  0  0
 18 22  1  0  0  0  0
 18 73  1  0  0  0  0
 18 74  1  0  0  0  0
 19 75  1  0  0  0  0
 19 76  1  0  0  0  0
 20 77  1  0  0  0  0
 20 78  1  0  0  0  0
 21 79  1  0  0  0  0
 21 80  1  0  0  0  0
 22 81  1  0  0  0  0
 22 82  1  0  0  0  0
 23 35  1  0  0  0  0
 23 83  1  0  0  0  0
 23 84  1  0  0  0  0
 24 36  1  0  0  0  0
 24 85  1  0  0  0  0
 24 86  1  0  0  0  0
 25 37  1  0  0  0  0
 25 87  1  0  0  0  0
 25 88  1  0  0  0  0
 26 38  1  0  0  0  0
 26 89  1  0  0  0  0
 26 90  1  0  0  0  0
 27 33  1  0  0  0  0
 28 34  1  0  0  0  0
 29 47  1  0  0  0  0
 29 91  1  0  0  0  0
 29 92  1  0  0  0  0
 30 48  1  0  0  0  0
 30 93  1  0  0  0  0
 30 94  1  0  0  0  0
 31 39  2  0  0  0  0
 31 41  1  0  0  0  0
 32 40  2  0  0  0  0
 32 42  1  0  0  0  0
 33 49  2  0  0  0  0
 33 51  1  0  0  0  0
 34 50  2  0  0  0  0
 34 52  1  0  0  0  0
 35 53  2  0  0  0  0
 35 55  1  0  0  0  0
 36 54  2  0  0  0  0
 36 56  1  0  0  0  0
 37 95  1  0  0  0  0
 37 96  1  0  0  0  0
 37 97  1  0  0  0  0
 38 98  1  0  0  0  0
 38 99  1  0  0  0  0
 38100  1  0  0  0  0
 39 49  1  0  0  0  0
 39101  1  0  0  0  0
 40 50  1  0  0  0  0
 40102  1  0  0  0  0
 41 51  2  0  0  0  0
 41103  1  0  0  0  0
 42 52  2  0  0  0  0
 42104  1  0  0  0  0
 43105  1  0  0  0  0
 43106  1  0  0  0  0
 43107  1  0  0  0  0
 44108  1  0  0  0  0
 44109  1  0  0  0  0
 44110  1  0  0  0  0
 45111  1  0  0  0  0
 45112  1  0  0  0  0
 45113  1  0  0  0  0
 46114  1  0  0  0  0
 46115  1  0  0  0  0
 46116  1  0  0  0  0
 47 57  1  0  0  0  0
 47117  1  0  0  0  0
 47118  1  0  0  0  0
 48 58  1  0  0  0  0
 48119  1  0  0  0  0
 48120  1  0  0  0  0
 49121  1  0  0  0  0
 50122  1  0  0  0  0
 51123  1  0  0  0  0
 52124  1  0  0  0  0
 53 59  1  0  0  0  0
 53125  1  0  0  0  0
 54 60  1  0  0  0  0
 54126  1  0  0  0  0
 55 61  2  0  0  0  0
 55127  1  0  0  0  0
 56 62  2  0  0  0  0
 56128  1  0  0  0  0
 59 63  2  0  0  0  0
 59129  1  0  0  0  0
 60 64  2  0  0  0  0
 60130  1  0  0  0  0
 61 63  1  0  0  0  0
 61131  1  0  0  0  0
 62 64  1  0  0  0  0
 62132  1  0  0  0  0
 63133  1  0  0  0  0
 64134  1  0  0  0  0
 65 66  1  0  0  0  0
 65135  1  0  0  0  0
 65136  1  0  0  0  0
 66137  1  0  0  0  0
 66138  1  0  0  0  0
M  END
> <PUBCHEM_COMPOUND_CID>
57934602

> <PUBCHEM_COMPOUND_CANONICALIZED>
1

> <PUBCHEM_CACTVS_COMPLEXITY>
1380

> <PUBCHEM_CACTVS_HBOND_ACCEPTOR>
12

> <PUBCHEM_CACTVS_HBOND_DONOR>
0

> <PUBCHEM_CACTVS_ROTATABLE_BOND>
25

> <PUBCHEM_CACTVS_SUBSKEYS>
AAADcfB/uAAAAAAAAAAAAAAAAAAAAAAAAAA8eMGCAAAAAAABVAAAHgAAAAAADIzhmAYyyIMABACIAqTSSACCAAAlAgAIiAGIZMgJYDrAlbGWIQhigADKyYcYicCeCAAAAAAAAAAQAAAAAAAAAAAAAAAAAA==

> <PUBCHEM_IUPAC_OPENEYE_NAME>
2-[3-[4-[4-[2-benzyl-2-(dimethylamino)butanoyl]phenyl]piperazin-1-yl]propanoyloxy]ethyl 3-[4-[4-[2-benzyl-2-(dimethylamino)butanoyl]phenyl]piperazin-1-yl]propanoate

> <PUBCHEM_IUPAC_CAS_NAME>
3-[4-[4-[2-(dimethylamino)-1-oxo-2-(phenylmethyl)butyl]phenyl]-1-piperazinyl]propanoic acid 2-[3-[4-[4-[2-(dimethylamino)-1-oxo-2-(phenylmethyl)butyl]phenyl]-1-piperazinyl]-1-oxopropoxy]ethyl ester

> <PUBCHEM_IUPAC_NAME_MARKUP>
2-[3-[4-[4-[2-benzyl-2-(dimethylamino)butanoyl]phenyl]piperazin-1-yl]propanoyloxy]ethyl 3-[4-[4-[2-benzyl-2-(dimethylamino)butanoyl]phenyl]piperazin-1-yl]propanoate

> <PUBCHEM_IUPAC_NAME>
2-[3-[4-[4-[2-benzyl-2-(dimethylamino)butanoyl]phenyl]piperazin-1-yl]propanoyloxy]ethyl 3-[4-[4-[2-benzyl-2-(dimethylamino)butanoyl]phenyl]piperazin-1-yl]propanoate

> <PUBCHEM_IUPAC_SYSTEMATIC_NAME>
2-[3-[4-[4-[2-(dimethylamino)-2-(phenylmethyl)butanoyl]phenyl]piperazin-1-yl]propanoyloxy]ethyl 3-[4-[4-[2-(dimethylamino)-2-(phenylmethyl)butanoyl]phenyl]piperazin-1-yl]propanoate

> <PUBCHEM_IUPAC_TRADITIONAL_NAME>
3-[4-[4-[2-benzyl-2-(dimethylamino)butanoyl]phenyl]piperazino]propionic acid 2-[3-[4-[4-[2-benzyl-2-(dimethylamino)butanoyl]phenyl]piperazino]propanoyloxy]ethyl ester

> <PUBCHEM_IUPAC_INCHI>
InChI=1S/C54H72N6O6/c1-7-53(55(3)4,41-43-15-11-9-12-16-43)51(63)45-19-23-47(24-20-45)59-35-31-57(32-36-59)29-27-49(61)65-39-40-66-50(62)28-30-58-33-37-60(38-34-58)48-25-21-46(22-26-48)52(64)54(8-2,56(5)6)42-44-17-13-10-14-18-44/h9-26H,7-8,27-42H2,1-6H3

> <PUBCHEM_IUPAC_INCHIKEY>
XYNGFZCNHCODJJ-UHFFFAOYSA-N

> <PUBCHEM_XLOGP3_AA>
8.1

> <PUBCHEM_EXACT_MASS>
900.55133404

> <PUBCHEM_MOLECULAR_FORMULA>
C54H72N6O6

> <PUBCHEM_MOLECULAR_WEIGHT>
901.2

> <PUBCHEM_SMILES>
CCC(CC1=CC=CC=C1)(C(=O)C2=CC=C(C=C2)N3CCN(CC3)CCC(=O)OCCOC(=O)CCN4CCN(CC4)C5=CC=C(C=C5)C(=O)C(CC)(CC6=CC=CC=C6)N(C)C)N(C)C

> <PUBCHEM_CONNECTIVITY_SMILES>
CCC(CC1=CC=CC=C1)(C(=O)C2=CC=C(C=C2)N3CCN(CC3)CCC(=O)OCCOC(=O)CCN4CCN(CC4)C5=CC=C(C=C5)C(=O)C(CC)(CC6=CC=CC=C6)N(C)C)N(C)C

> <PUBCHEM_CACTVS_TPSA>
106

> <PUBCHEM_MONOISOTOPIC_WEIGHT>
900.55133404

> <PUBCHEM_TOTAL_CHARGE>
0

> <PUBCHEM_HEAVY_ATOM_COUNT>
66

> <PUBCHEM_ATOM_DEF_STEREO_COUNT>
0

> <PUBCHEM_ATOM_UDEF_STEREO_COUNT>
2

> <PUBCHEM_BOND_DEF_STEREO_COUNT>
0

> <PUBCHEM_BOND_UDEF_STEREO_COUNT>
0

> <PUBCHEM_ISOTOPIC_ATOM_COUNT>
0

> <PUBCHEM_COMPONENT_COUNT>
1

> <PUBCHEM_CACTVS_TAUTO_COUNT>
-1

> <PUBCHEM_COORDINATE_TYPE>
1
5
255

> <PUBCHEM_BONDANNOTATIONS>
13  25  3
14  26  3
31  39  8
31  41  8
32  40  8
32  42  8
33  49  8
33  51  8
34  50  8
34  52  8
35  53  8
35  55  8
36  54  8
36  56  8
39  49  8
40  50  8
41  51  8
42  52  8
53  59  8
54  60  8
55  61  8
56  62  8
59  63  8
60  64  8
61  63  8
62  64  8

$$$$
