580061
  -OEChem-05122609082D

 17 17  0     0  0  0  0  0  0999 V2000
    2.5369   -0.5000    0.0000 O   0  0  0  0  0  0  0  0  0  0  0  0
    5.1350   -1.0000    0.0000 N   0  0  0  0  0  0  0  0  0  0  0  0
    5.1350    1.0000    0.0000 N   0  0  0  0  0  0  0  0  0  0  0  0
    4.2690   -0.5000    0.0000 C   0  0  0  0  0  0  0  0  0  0  0  0
    6.0010    0.5000    0.0000 C   0  0  0  0  0  0  0  0  0  0  0  0
    3.4030   -1.0000    0.0000 C   0  0  0  0  0  0  0  0  0  0  0  0
    4.2690    0.5000    0.0000 C   0  0  0  0  0  0  0  0  0  0  0  0
    6.0010   -0.5000    0.0000 C   0  0  0  0  0  0  0  0  0  0  0  0
    6.8671    1.0000    0.0000 C   0  0  0  0  0  0  0  0  0  0  0  0
    3.0044   -1.4750    0.0000 H   0  0  0  0  0  0  0  0  0  0  0  0
    3.8015   -1.4750    0.0000 H   0  0  0  0  0  0  0  0  0  0  0  0
    3.7321    0.8100    0.0000 H   0  0  0  0  0  0  0  0  0  0  0  0
    6.5380   -0.8100    0.0000 H   0  0  0  0  0  0  0  0  0  0  0  0
    7.1771    0.4631    0.0000 H   0  0  0  0  0  0  0  0  0  0  0  0
    7.4040    1.3100    0.0000 H   0  0  0  0  0  0  0  0  0  0  0  0
    6.5571    1.5369    0.0000 H   0  0  0  0  0  0  0  0  0  0  0  0
    2.0000   -0.8100    0.0000 H   0  0  0  0  0  0  0  0  0  0  0  0
  1  6  1  0  0  0  0
  1 17  1  0  0  0  0
  2  4  2  0  0  0  0
  2  8  1  0  0  0  0
  3  5  1  0  0  0  0
  3  7  2  0  0  0  0
  4  6  1  0  0  0  0
  4  7  1  0  0  0  0
  5  8  2  0  0  0  0
  5  9  1  0  0  0  0
  6 10  1  0  0  0  0
  6 11  1  0  0  0  0
  7 12  1  0  0  0  0
  8 13  1  0  0  0  0
  9 14  1  0  0  0  0
  9 15  1  0  0  0  0
  9 16  1  0  0  0  0
M  END
> <PUBCHEM_COMPOUND_CID>
580061

> <PUBCHEM_COMPOUND_CANONICALIZED>
1

> <PUBCHEM_CACTVS_COMPLEXITY>
87.1

> <PUBCHEM_CACTVS_HBOND_ACCEPTOR>
3

> <PUBCHEM_CACTVS_HBOND_DONOR>
1

> <PUBCHEM_CACTVS_ROTATABLE_BOND>
1

> <PUBCHEM_CACTVS_SUBSKEYS>
AAADccBjIAAAAAAAAAAAAAAAAAAAAAAAAAAsAAAAAAAAAAABgAAAHgAACAAACAjhlgYugBIIEgCgARRnRAQAgCQREiAAUAA4eAACVEBAAQAUQAACAADQEAAAAAAAAAAAAAAAAAAAAAAAAAAAAAAAAAAAAA==

> <PUBCHEM_IUPAC_OPENEYE_NAME>
(5-methylpyrazin-2-yl)methanol

> <PUBCHEM_IUPAC_CAS_NAME>
(5-methyl-2-pyrazinyl)methanol

> <PUBCHEM_IUPAC_NAME_MARKUP>
(5-methylpyrazin-2-yl)methanol

> <PUBCHEM_IUPAC_NAME>
(5-methylpyrazin-2-yl)methanol

> <PUBCHEM_IUPAC_SYSTEMATIC_NAME>
(5-methylpyrazin-2-yl)methanol

> <PUBCHEM_IUPAC_TRADITIONAL_NAME>
(5-methylpyrazin-2-yl)methanol

> <PUBCHEM_IUPAC_INCHI>
InChI=1S/C6H8N2O/c1-5-2-8-6(4-9)3-7-5/h2-3,9H,4H2,1H3

> <PUBCHEM_IUPAC_INCHIKEY>
QYANNJBVADZUDN-UHFFFAOYSA-N

> <PUBCHEM_XLOGP3_AA>
-0.7

> <PUBCHEM_EXACT_MASS>
124.063662883

> <PUBCHEM_MOLECULAR_FORMULA>
C6H8N2O

> <PUBCHEM_MOLECULAR_WEIGHT>
124.14

> <PUBCHEM_SMILES>
CC1=CN=C(C=N1)CO

> <PUBCHEM_CONNECTIVITY_SMILES>
CC1=CN=C(C=N1)CO

> <PUBCHEM_CACTVS_TPSA>
46

> <PUBCHEM_MONOISOTOPIC_WEIGHT>
124.063662883

> <PUBCHEM_TOTAL_CHARGE>
0

> <PUBCHEM_HEAVY_ATOM_COUNT>
9

> <PUBCHEM_ATOM_DEF_STEREO_COUNT>
0

> <PUBCHEM_ATOM_UDEF_STEREO_COUNT>
0

> <PUBCHEM_BOND_DEF_STEREO_COUNT>
0

> <PUBCHEM_BOND_UDEF_STEREO_COUNT>
0

> <PUBCHEM_ISOTOPIC_ATOM_COUNT>
0

> <PUBCHEM_COMPONENT_COUNT>
1

> <PUBCHEM_CACTVS_TAUTO_COUNT>
-1

> <PUBCHEM_COORDINATE_TYPE>
1
5
255

> <PUBCHEM_BONDANNOTATIONS>
2  4  8
2  8  8
3  5  8
3  7  8
4  7  8
5  8  8

$$$$
