582269
  -OEChem-05122609492D

 22 24  0     1  0  0  0  0  0999 V2000
    4.4355    1.8389    0.0000 O   0  0  0  0  0  0  0  0  0  0  0  0
    5.6721   -0.0097    0.0000 C   0  0  3  0  0  0  0  0  0  0  0  0
    5.4133   -0.9757    0.0000 C   0  0  3  0  0  0  0  0  0  0  0  0
    4.9355    0.9729    0.0000 C   0  0  0  0  0  0  0  0  0  0  0  0
    3.6986   -0.6280    0.0000 C   0  0  0  0  0  0  0  0  0  0  0  0
    4.0406   -1.5677    0.0000 C   0  0  0  0  0  0  0  0  0  0  0  0
    7.0711   -0.5186    0.0000 C   0  0  0  0  0  0  0  0  0  0  0  0
    6.8122   -1.4845    0.0000 C   0  0  0  0  0  0  0  0  0  0  0  0
    2.6757   -0.4313    0.0000 C   0  0  0  0  0  0  0  0  0  0  0  0
    3.3834   -2.3758    0.0000 C   0  0  0  0  0  0  0  0  0  0  0  0
    2.0000   -1.2241    0.0000 C   0  0  0  0  0  0  0  0  0  0  0  0
    2.3563   -2.2029    0.0000 C   0  0  0  0  0  0  0  0  0  0  0  0
    6.0415    0.4882    0.0000 H   0  0  0  0  0  0  0  0  0  0  0  0
    5.8748   -0.5616    0.0000 H   0  0  0  0  0  0  0  0  0  0  0  0
    5.4529    1.3144    0.0000 H   0  0  0  0  0  0  0  0  0  0  0  0
    7.6210   -0.2322    0.0000 H   0  0  0  0  0  0  0  0  0  0  0  0
    7.0986   -2.0344    0.0000 H   0  0  0  0  0  0  0  0  0  0  0  0
    2.4704    0.1537    0.0000 H   0  0  0  0  0  0  0  0  0  0  0  0
    3.6022   -2.9560    0.0000 H   0  0  0  0  0  0  0  0  0  0  0  0
    4.7455    2.3758    0.0000 H   0  0  0  0  0  0  0  0  0  0  0  0
    1.3898   -1.1140    0.0000 H   0  0  0  0  0  0  0  0  0  0  0  0
    1.9596   -2.6794    0.0000 H   0  0  0  0  0  0  0  0  0  0  0  0
  1  4  1  0  0  0  0
  1 20  1  0  0  0  0
  2  4  1  0  0  0  0
  2  5  1  0  0  0  0
  2  7  1  0  0  0  0
  2 13  1  0  0  0  0
  3  4  1  0  0  0  0
  3  6  1  0  0  0  0
  3  8  1  0  0  0  0
  3 14  1  0  0  0  0
  4 15  1  0  0  0  0
  5  6  1  0  0  0  0
  5  9  2  0  0  0  0
  6 10  2  0  0  0  0
  7  8  2  0  0  0  0
  7 16  1  0  0  0  0
  8 17  1  0  0  0  0
  9 11  1  0  0  0  0
  9 18  1  0  0  0  0
 10 12  1  0  0  0  0
 10 19  1  0  0  0  0
 11 12  2  0  0  0  0
 11 21  1  0  0  0  0
 12 22  1  0  0  0  0
M  END
> <PUBCHEM_COMPOUND_CID>
582269

> <PUBCHEM_COMPOUND_CANONICALIZED>
1

> <PUBCHEM_CACTVS_COMPLEXITY>
199

> <PUBCHEM_CACTVS_HBOND_ACCEPTOR>
1

> <PUBCHEM_CACTVS_HBOND_DONOR>
1

> <PUBCHEM_CACTVS_ROTATABLE_BOND>
0

> <PUBCHEM_CACTVS_SUBSKEYS>
AAADccBwIAAAAAAAAAAAAAAAAAAAAYIAAAAwQAAAAAAAAGABAAAAGgAACAAADRSgmAIwAIAAAgCAAiBCAAACAAAgAAAIiAAAAIgIMCKAERCAYAAkwAEIiAeAwOAOgAAAAAAQAAAAAAAAACAAAYAADAAAAA==

> <PUBCHEM_IUPAC_OPENEYE_NAME>
tricyclo[6.2.1.02,7]undeca-2,4,6,9-tetraen-11-ol

> <PUBCHEM_IUPAC_CAS_NAME>
11-tricyclo[6.2.1.02,7]undeca-2,4,6,9-tetraenol

> <PUBCHEM_IUPAC_NAME_MARKUP>
tricyclo[6.2.1.0<SUP>2,7</SUP>]undeca-2,4,6,9-tetraen-11-ol

> <PUBCHEM_IUPAC_NAME>
tricyclo[6.2.1.02,7]undeca-2,4,6,9-tetraen-11-ol

> <PUBCHEM_IUPAC_SYSTEMATIC_NAME>
tricyclo[6.2.1.02,7]undeca-2,4,6,9-tetraen-11-ol

> <PUBCHEM_IUPAC_TRADITIONAL_NAME>
tricyclo[6.2.1.02,7]undeca-2,4,6,9-tetraen-11-ol

> <PUBCHEM_IUPAC_INCHI>
InChI=1S/C11H10O/c12-11-9-5-6-10(11)8-4-2-1-3-7(8)9/h1-6,9-12H

> <PUBCHEM_IUPAC_INCHIKEY>
QKVDCXPAIYICFT-UHFFFAOYSA-N

> <PUBCHEM_XLOGP3_AA>
1.7

> <PUBCHEM_EXACT_MASS>
158.073164938

> <PUBCHEM_MOLECULAR_FORMULA>
C11H10O

> <PUBCHEM_MOLECULAR_WEIGHT>
158.20

> <PUBCHEM_SMILES>
C1=CC=C2C3C=CC(C3O)C2=C1

> <PUBCHEM_CONNECTIVITY_SMILES>
C1=CC=C2C3C=CC(C3O)C2=C1

> <PUBCHEM_CACTVS_TPSA>
20.2

> <PUBCHEM_MONOISOTOPIC_WEIGHT>
158.073164938

> <PUBCHEM_TOTAL_CHARGE>
0

> <PUBCHEM_HEAVY_ATOM_COUNT>
12

> <PUBCHEM_ATOM_DEF_STEREO_COUNT>
0

> <PUBCHEM_ATOM_UDEF_STEREO_COUNT>
2

> <PUBCHEM_BOND_DEF_STEREO_COUNT>
0

> <PUBCHEM_BOND_UDEF_STEREO_COUNT>
0

> <PUBCHEM_ISOTOPIC_ATOM_COUNT>
0

> <PUBCHEM_COMPONENT_COUNT>
1

> <PUBCHEM_CACTVS_TAUTO_COUNT>
-1

> <PUBCHEM_COORDINATE_TYPE>
1
5
255

> <PUBCHEM_BONDANNOTATIONS>
10  12  8
11  12  8
2  7  3
3  8  3
5  6  8
5  9  8
6  10  8
9  11  8

$$$$
