583087
  -OEChem-05122609162D

 34 36  0     1  0  0  0  0  0999 V2000
    4.5346    0.5000    0.0000 C   0  0  3  0  0  0  0  0  0  0  0  0
    4.5346   -0.5000    0.0000 C   0  0  3  0  0  0  0  0  0  0  0  0
    3.5346    0.5000    0.0000 C   0  0  0  0  0  0  0  0  0  0  0  0
    3.5346   -0.5000    0.0000 C   0  0  0  0  0  0  0  0  0  0  0  0
    5.0693    1.3939    0.0000 C   0  0  0  0  0  0  0  0  0  0  0  0
    5.0693   -1.3939    0.0000 C   0  0  0  0  0  0  0  0  0  0  0  0
    2.9999    1.3939    0.0000 C   0  0  0  0  0  0  0  0  0  0  0  0
    2.9999   -1.3939    0.0000 C   0  0  0  0  0  0  0  0  0  0  0  0
    4.5554    2.3000    0.0000 C   0  0  0  0  0  0  0  0  0  0  0  0
    4.5554   -2.3000    0.0000 C   0  0  0  0  0  0  0  0  0  0  0  0
    3.5138    2.3000    0.0000 C   0  0  0  0  0  0  0  0  0  0  0  0
    3.5138   -2.3000    0.0000 C   0  0  0  0  0  0  0  0  0  0  0  0
    2.0000    1.3824    0.0000 C   0  0  0  0  0  0  0  0  0  0  0  0
    2.0000   -1.3824    0.0000 C   0  0  0  0  0  0  0  0  0  0  0  0
    5.1322    0.3349    0.0000 H   0  0  0  0  0  0  0  0  0  0  0  0
    5.1322   -0.3349    0.0000 H   0  0  0  0  0  0  0  0  0  0  0  0
    5.5390    0.9893    0.0000 H   0  0  0  0  0  0  0  0  0  0  0  0
    5.5483    1.7876    0.0000 H   0  0  0  0  0  0  0  0  0  0  0  0
    5.5483   -1.7876    0.0000 H   0  0  0  0  0  0  0  0  0  0  0  0
    5.5390   -0.9893    0.0000 H   0  0  0  0  0  0  0  0  0  0  0  0
    5.1391    2.5091    0.0000 H   0  0  0  0  0  0  0  0  0  0  0  0
    4.4493    2.9109    0.0000 H   0  0  0  0  0  0  0  0  0  0  0  0
    4.4493   -2.9109    0.0000 H   0  0  0  0  0  0  0  0  0  0  0  0
    5.1391   -2.5091    0.0000 H   0  0  0  0  0  0  0  0  0  0  0  0
    3.6199    2.9109    0.0000 H   0  0  0  0  0  0  0  0  0  0  0  0
    2.9301    2.5091    0.0000 H   0  0  0  0  0  0  0  0  0  0  0  0
    2.9301   -2.5091    0.0000 H   0  0  0  0  0  0  0  0  0  0  0  0
    3.6199   -2.9109    0.0000 H   0  0  0  0  0  0  0  0  0  0  0  0
    1.9928    2.0023    0.0000 H   0  0  0  0  0  0  0  0  0  0  0  0
    1.3800    1.3752    0.0000 H   0  0  0  0  0  0  0  0  0  0  0  0
    2.0072    0.7624    0.0000 H   0  0  0  0  0  0  0  0  0  0  0  0
    2.0072   -0.7624    0.0000 H   0  0  0  0  0  0  0  0  0  0  0  0
    1.3800   -1.3752    0.0000 H   0  0  0  0  0  0  0  0  0  0  0  0
    1.9928   -2.0023    0.0000 H   0  0  0  0  0  0  0  0  0  0  0  0
  1  2  1  0  0  0  0
  1  3  1  0  0  0  0
  1  5  1  0  0  0  0
  1 15  1  0  0  0  0
  2  4  1  0  0  0  0
  2  6  1  0  0  0  0
  2 16  1  0  0  0  0
  3  4  1  0  0  0  0
  3  7  2  0  0  0  0
  4  8  2  0  0  0  0
  5  9  1  0  0  0  0
  5 17  1  0  0  0  0
  5 18  1  0  0  0  0
  6 10  1  0  0  0  0
  6 19  1  0  0  0  0
  6 20  1  0  0  0  0
  7 11  1  0  0  0  0
  7 13  1  0  0  0  0
  8 12  1  0  0  0  0
  8 14  1  0  0  0  0
  9 11  1  0  0  0  0
  9 21  1  0  0  0  0
  9 22  1  0  0  0  0
 10 12  1  0  0  0  0
 10 23  1  0  0  0  0
 10 24  1  0  0  0  0
 11 25  1  0  0  0  0
 11 26  1  0  0  0  0
 12 27  1  0  0  0  0
 12 28  1  0  0  0  0
 13 29  1  0  0  0  0
 13 30  1  0  0  0  0
 13 31  1  0  0  0  0
 14 32  1  0  0  0  0
 14 33  1  0  0  0  0
 14 34  1  0  0  0  0
M  END
> <PUBCHEM_COMPOUND_CID>
583087

> <PUBCHEM_COMPOUND_CANONICALIZED>
1

> <PUBCHEM_CACTVS_COMPLEXITY>
296

> <PUBCHEM_CACTVS_HBOND_ACCEPTOR>
0

> <PUBCHEM_CACTVS_HBOND_DONOR>
0

> <PUBCHEM_CACTVS_ROTATABLE_BOND>
0

> <PUBCHEM_CACTVS_SUBSKEYS>
AAADceBwAAAAAAAAAAAAAAAAAABgAAAAAAAgQAAAAAAQIAAAAAAAGAAAAAAADQCAAAACAAAAAACAAgBAAAAAAAAgAAAACAAAAAgIAAIAAAAAAAAAgAAIgAMAgMAOgAAAAAAAAAAAAAAAAAAAAAAAAAAAAA==

> <PUBCHEM_IUPAC_OPENEYE_NAME>
4,5-dimethyl-1,2,3,6,7,8,8a,8b-octahydrobiphenylene

> <PUBCHEM_IUPAC_CAS_NAME>
4,5-dimethyl-1,2,3,6,7,8,8a,8b-octahydrobiphenylene

> <PUBCHEM_IUPAC_NAME_MARKUP>
4,5-dimethyl-1,2,3,6,7,8,8<I>a</I>,8<I>b</I>-octahydrobiphenylene

> <PUBCHEM_IUPAC_NAME>
4,5-dimethyl-1,2,3,6,7,8,8a,8b-octahydrobiphenylene

> <PUBCHEM_IUPAC_SYSTEMATIC_NAME>
4,5-dimethyl-1,2,3,6,7,8,8a,8b-octahydrobiphenylene

> <PUBCHEM_IUPAC_TRADITIONAL_NAME>
4,5-dimethyl-1,2,3,6,7,8,8a,8b-octahydrobiphenylene

> <PUBCHEM_IUPAC_INCHI>
InChI=1S/C14H20/c1-9-5-3-7-11-12-8-4-6-10(2)14(12)13(9)11/h11-12H,3-8H2,1-2H3

> <PUBCHEM_IUPAC_INCHIKEY>
LPONMLCILIVSGA-UHFFFAOYSA-N

> <PUBCHEM_XLOGP3_AA>
2.9

> <PUBCHEM_EXACT_MASS>
188.156500638

> <PUBCHEM_MOLECULAR_FORMULA>
C14H20

> <PUBCHEM_MOLECULAR_WEIGHT>
188.31

> <PUBCHEM_SMILES>
CC1=C2C(CCC1)C3C2=C(CCC3)C

> <PUBCHEM_CONNECTIVITY_SMILES>
CC1=C2C(CCC1)C3C2=C(CCC3)C

> <PUBCHEM_CACTVS_TPSA>
0

> <PUBCHEM_MONOISOTOPIC_WEIGHT>
188.156500638

> <PUBCHEM_TOTAL_CHARGE>
0

> <PUBCHEM_HEAVY_ATOM_COUNT>
14

> <PUBCHEM_ATOM_DEF_STEREO_COUNT>
0

> <PUBCHEM_ATOM_UDEF_STEREO_COUNT>
2

> <PUBCHEM_BOND_DEF_STEREO_COUNT>
0

> <PUBCHEM_BOND_UDEF_STEREO_COUNT>
0

> <PUBCHEM_ISOTOPIC_ATOM_COUNT>
0

> <PUBCHEM_COMPONENT_COUNT>
1

> <PUBCHEM_CACTVS_TAUTO_COUNT>
-1

> <PUBCHEM_COORDINATE_TYPE>
1
5
255

> <PUBCHEM_BONDANNOTATIONS>
1  5  3
2  6  3

$$$$
