583831
  -OEChem-05122609122D

 43 46  0     1  0  0  0  0  0999 V2000
    3.7320   -2.2800    0.0000 O   0  0  0  0  0  0  0  0  0  0  0  0
    2.0000   -2.2800    0.0000 O   0  0  0  0  0  0  0  0  0  0  0  0
    9.3992    2.2800    0.0000 O   0  0  0  0  0  0  0  0  0  0  0  0
    4.5981   -0.7800    0.0000 C   0  0  3  0  0  0  0  0  0  0  0  0
    5.5443   -0.4753    0.0000 C   0  0  3  0  0  0  0  0  0  0  0  0
    4.5981   -1.7800    0.0000 C   0  0  3  0  0  0  0  0  0  0  0  0
    5.8550    0.4753    0.0000 C   0  0  3  0  0  0  0  0  0  0  0  0
    6.1279   -1.2800    0.0000 C   0  0  0  0  0  0  0  0  0  0  0  0
    5.5443   -2.0847    0.0000 C   0  0  0  0  0  0  0  0  0  0  0  0
    3.7320   -0.2800    0.0000 C   0  0  0  0  0  0  0  0  0  0  0  0
    4.5981    0.2200    0.0000 C   0  0  0  0  0  0  0  0  0  0  0  0
    5.2714    1.2800    0.0000 C   0  0  0  0  0  0  0  0  0  0  0  0
    6.8012    0.7800    0.0000 C   0  0  0  0  0  0  0  0  0  0  0  0
    2.8660   -0.7800    0.0000 C   0  0  0  0  0  0  0  0  0  0  0  0
    5.8550    2.0847    0.0000 C   0  0  0  0  0  0  0  0  0  0  0  0
    6.8012    1.7800    0.0000 C   0  0  0  0  0  0  0  0  0  0  0  0
    2.8660   -1.7800    0.0000 C   0  0  0  0  0  0  0  0  0  0  0  0
    7.6672    0.2800    0.0000 C   0  0  0  0  0  0  0  0  0  0  0  0
    7.6672    2.2800    0.0000 C   0  0  0  0  0  0  0  0  0  0  0  0
    8.5332    0.7800    0.0000 C   0  0  0  0  0  0  0  0  0  0  0  0
    8.5332    1.7800    0.0000 C   0  0  0  0  0  0  0  0  0  0  0  0
    6.1568   -0.3791    0.0000 H   0  0  0  0  0  0  0  0  0  0  0  0
    4.6637   -2.3965    0.0000 H   0  0  0  0  0  0  0  0  0  0  0  0
    5.2425    0.3791    0.0000 H   0  0  0  0  0  0  0  0  0  0  0  0
    6.5888   -1.6947    0.0000 H   0  0  0  0  0  0  0  0  0  0  0  0
    6.5888   -0.8653    0.0000 H   0  0  0  0  0  0  0  0  0  0  0  0
    5.2933   -2.6516    0.0000 H   0  0  0  0  0  0  0  0  0  0  0  0
    6.0817   -2.3939    0.0000 H   0  0  0  0  0  0  0  0  0  0  0  0
    4.1306    0.1950    0.0000 H   0  0  0  0  0  0  0  0  0  0  0  0
    3.3335    0.1950    0.0000 H   0  0  0  0  0  0  0  0  0  0  0  0
    5.2181    0.2200    0.0000 H   0  0  0  0  0  0  0  0  0  0  0  0
    4.5981    0.8400    0.0000 H   0  0  0  0  0  0  0  0  0  0  0  0
    3.9781    0.2200    0.0000 H   0  0  0  0  0  0  0  0  0  0  0  0
    4.8105    1.6947    0.0000 H   0  0  0  0  0  0  0  0  0  0  0  0
    4.8105    0.8653    0.0000 H   0  0  0  0  0  0  0  0  0  0  0  0
    2.6540   -0.1974    0.0000 H   0  0  0  0  0  0  0  0  0  0  0  0
    2.2554   -0.8877    0.0000 H   0  0  0  0  0  0  0  0  0  0  0  0
    6.1060    2.6516    0.0000 H   0  0  0  0  0  0  0  0  0  0  0  0
    5.3176    2.3939    0.0000 H   0  0  0  0  0  0  0  0  0  0  0  0
    7.6672   -0.3400    0.0000 H   0  0  0  0  0  0  0  0  0  0  0  0
    7.6672    2.9000    0.0000 H   0  0  0  0  0  0  0  0  0  0  0  0
    9.0702    0.4700    0.0000 H   0  0  0  0  0  0  0  0  0  0  0  0
    9.9362    1.9700    0.0000 H   0  0  0  0  0  0  0  0  0  0  0  0
  1  6  1  0  0  0  0
  1 17  1  0  0  0  0
  2 17  2  0  0  0  0
  3 21  1  0  0  0  0
  3 43  1  0  0  0  0
  4  5  1  0  0  0  0
  4  6  1  0  0  0  0
  4 10  1  0  0  0  0
  4 11  1  0  0  0  0
  5  7  1  0  0  0  0
  5  8  1  0  0  0  0
  5 22  1  0  0  0  0
  6  9  1  0  0  0  0
  6 23  1  0  0  0  0
  7 12  1  0  0  0  0
  7 13  1  0  0  0  0
  7 24  1  0  0  0  0
  8  9  1  0  0  0  0
  8 25  1  0  0  0  0
  8 26  1  0  0  0  0
  9 27  1  0  0  0  0
  9 28  1  0  0  0  0
 10 14  1  0  0  0  0
 10 29  1  0  0  0  0
 10 30  1  0  0  0  0
 11 31  1  0  0  0  0
 11 32  1  0  0  0  0
 11 33  1  0  0  0  0
 12 15  1  0  0  0  0
 12 34  1  0  0  0  0
 12 35  1  0  0  0  0
 13 16  2  0  0  0  0
 13 18  1  0  0  0  0
 14 17  1  0  0  0  0
 14 36  1  0  0  0  0
 14 37  1  0  0  0  0
 15 16  1  0  0  0  0
 15 38  1  0  0  0  0
 15 39  1  0  0  0  0
 16 19  1  0  0  0  0
 18 20  2  0  0  0  0
 18 40  1  0  0  0  0
 19 21  2  0  0  0  0
 19 41  1  0  0  0  0
 20 21  1  0  0  0  0
 20 42  1  0  0  0  0
M  END
> <PUBCHEM_COMPOUND_CID>
583831

> <PUBCHEM_COMPOUND_CANONICALIZED>
1

> <PUBCHEM_CACTVS_COMPLEXITY>
434

> <PUBCHEM_CACTVS_HBOND_ACCEPTOR>
3

> <PUBCHEM_CACTVS_HBOND_DONOR>
1

> <PUBCHEM_CACTVS_ROTATABLE_BOND>
1

> <PUBCHEM_CACTVS_SUBSKEYS>
AAADceB4MAAAAAAAAAAAAAAAAAAAAYMAAAA0QAAAAAAAAGgBAAAAGgAACAAADxSgmAIyDoAABgCIAiDSCAACAAAgIAAIiAEGCIgIJjKCERKCcAAkwBEImAeIzPDPoAABAAAQAABAAAIAACAAAYAADAAAAA==

> <PUBCHEM_IUPAC_OPENEYE_NAME>
5-(5-hydroxyindan-1-yl)-4a-methyl-3,4,5,6,7,7a-hexahydrocyclopenta[b]pyran-2-one

> <PUBCHEM_IUPAC_CAS_NAME>
5-(5-hydroxy-2,3-dihydro-1H-inden-1-yl)-4a-methyl-3,4,5,6,7,7a-hexahydrocyclopenta[b]pyran-2-one

> <PUBCHEM_IUPAC_NAME_MARKUP>
5-(5-hydroxy-2,3-dihydro-1<I>H</I>-inden-1-yl)-4<I>a</I>-methyl-3,4,5,6,7,7<I>a</I>-hexahydrocyclopenta[b]pyran-2-one

> <PUBCHEM_IUPAC_NAME>
5-(5-hydroxy-2,3-dihydro-1H-inden-1-yl)-4a-methyl-3,4,5,6,7,7a-hexahydrocyclopenta[b]pyran-2-one

> <PUBCHEM_IUPAC_SYSTEMATIC_NAME>
4a-methyl-5-(5-oxidanyl-2,3-dihydro-1H-inden-1-yl)-3,4,5,6,7,7a-hexahydrocyclopenta[b]pyran-2-one

> <PUBCHEM_IUPAC_TRADITIONAL_NAME>
5-(5-hydroxyindan-1-yl)-4a-methyl-3,4,5,6,7,7a-hexahydrocyclopenta[b]pyran-2-one

> <PUBCHEM_IUPAC_INCHI>
InChI=1S/C18H22O3/c1-18-9-8-17(20)21-16(18)7-6-15(18)14-4-2-11-10-12(19)3-5-13(11)14/h3,5,10,14-16,19H,2,4,6-9H2,1H3

> <PUBCHEM_IUPAC_INCHIKEY>
RWWNBYYTBMUXRO-UHFFFAOYSA-N

> <PUBCHEM_XLOGP3_AA>
3.6

> <PUBCHEM_EXACT_MASS>
286.15689456

> <PUBCHEM_MOLECULAR_FORMULA>
C18H22O3

> <PUBCHEM_MOLECULAR_WEIGHT>
286.4

> <PUBCHEM_SMILES>
CC12CCC(=O)OC1CCC2C3CCC4=C3C=CC(=C4)O

> <PUBCHEM_CONNECTIVITY_SMILES>
CC12CCC(=O)OC1CCC2C3CCC4=C3C=CC(=C4)O

> <PUBCHEM_CACTVS_TPSA>
46.5

> <PUBCHEM_MONOISOTOPIC_WEIGHT>
286.15689456

> <PUBCHEM_TOTAL_CHARGE>
0

> <PUBCHEM_HEAVY_ATOM_COUNT>
21

> <PUBCHEM_ATOM_DEF_STEREO_COUNT>
0

> <PUBCHEM_ATOM_UDEF_STEREO_COUNT>
4

> <PUBCHEM_BOND_DEF_STEREO_COUNT>
0

> <PUBCHEM_BOND_UDEF_STEREO_COUNT>
0

> <PUBCHEM_ISOTOPIC_ATOM_COUNT>
0

> <PUBCHEM_COMPONENT_COUNT>
1

> <PUBCHEM_CACTVS_TAUTO_COUNT>
-1

> <PUBCHEM_COORDINATE_TYPE>
1
5
255

> <PUBCHEM_BONDANNOTATIONS>
13  16  8
13  18  8
16  19  8
18  20  8
19  21  8
20  21  8
4  11  3
5  8  3
6  9  3
7  12  3

$$$$
