584950
  -OEChem-05122609012D

 41 42  0     1  0  0  0  0  0999 V2000
    3.7321    0.7321    0.0000 C   0  0  3  0  0  0  0  0  0  0  0  0
    3.7321    1.7321    0.0000 C   0  0  3  0  0  0  0  0  0  0  0  0
    4.5986    1.2321    0.0000 C   0  0  0  0  0  0  0  0  0  0  0  0
    2.8660    0.2321    0.0000 C   0  0  0  0  0  0  0  0  0  0  0  0
    2.8660    2.2321    0.0000 C   0  0  0  0  0  0  0  0  0  0  0  0
    2.0000    0.7321    0.0000 C   0  0  0  0  0  0  0  0  0  0  0  0
    2.0000    1.7321    0.0000 C   0  0  0  0  0  0  0  0  0  0  0  0
    5.5986    1.2321    0.0000 C   0  0  0  0  0  0  0  0  0  0  0  0
    6.0986    0.3660    0.0000 C   0  0  0  0  0  0  0  0  0  0  0  0
    7.0986    0.3660    0.0000 C   0  0  0  0  0  0  0  0  0  0  0  0
    7.5986   -0.5000    0.0000 C   0  0  0  0  0  0  0  0  0  0  0  0
    8.5986   -0.5000    0.0000 C   0  0  0  0  0  0  0  0  0  0  0  0
    9.0986   -1.3660    0.0000 C   0  0  0  0  0  0  0  0  0  0  0  0
   10.0986   -1.3660    0.0000 C   0  0  0  0  0  0  0  0  0  0  0  0
   10.5986   -2.2321    0.0000 C   0  0  0  0  0  0  0  0  0  0  0  0
    4.0420    0.1951    0.0000 H   0  0  0  0  0  0  0  0  0  0  0  0
    4.0420    2.2690    0.0000 H   0  0  0  0  0  0  0  0  0  0  0  0
    2.4675   -0.2429    0.0000 H   0  0  0  0  0  0  0  0  0  0  0  0
    3.2646   -0.2429    0.0000 H   0  0  0  0  0  0  0  0  0  0  0  0
    3.2646    2.7070    0.0000 H   0  0  0  0  0  0  0  0  0  0  0  0
    2.4675    2.7070    0.0000 H   0  0  0  0  0  0  0  0  0  0  0  0
    1.3894    0.8397    0.0000 H   0  0  0  0  0  0  0  0  0  0  0  0
    1.7880    0.1494    0.0000 H   0  0  0  0  0  0  0  0  0  0  0  0
    1.7880    2.3147    0.0000 H   0  0  0  0  0  0  0  0  0  0  0  0
    1.3894    1.6244    0.0000 H   0  0  0  0  0  0  0  0  0  0  0  0
    5.9086    1.7690    0.0000 H   0  0  0  0  0  0  0  0  0  0  0  0
    5.5160    0.1540    0.0000 H   0  0  0  0  0  0  0  0  0  0  0  0
    6.2063   -0.2446    0.0000 H   0  0  0  0  0  0  0  0  0  0  0  0
    7.6812    0.5781    0.0000 H   0  0  0  0  0  0  0  0  0  0  0  0
    6.9909    0.9766    0.0000 H   0  0  0  0  0  0  0  0  0  0  0  0
    7.0160   -0.7121    0.0000 H   0  0  0  0  0  0  0  0  0  0  0  0
    7.7063   -1.1106    0.0000 H   0  0  0  0  0  0  0  0  0  0  0  0
    9.1812   -0.2879    0.0000 H   0  0  0  0  0  0  0  0  0  0  0  0
    8.4909    0.1106    0.0000 H   0  0  0  0  0  0  0  0  0  0  0  0
    8.5160   -1.5781    0.0000 H   0  0  0  0  0  0  0  0  0  0  0  0
    9.2063   -1.9766    0.0000 H   0  0  0  0  0  0  0  0  0  0  0  0
   10.6812   -1.1540    0.0000 H   0  0  0  0  0  0  0  0  0  0  0  0
    9.9909   -0.7554    0.0000 H   0  0  0  0  0  0  0  0  0  0  0  0
   10.0617   -2.5421    0.0000 H   0  0  0  0  0  0  0  0  0  0  0  0
   10.9086   -2.7690    0.0000 H   0  0  0  0  0  0  0  0  0  0  0  0
   11.1355   -1.9221    0.0000 H   0  0  0  0  0  0  0  0  0  0  0  0
  1  2  1  0  0  0  0
  1  3  1  0  0  0  0
  1  4  1  0  0  0  0
  1 16  1  0  0  0  0
  2  3  1  0  0  0  0
  2  5  1  0  0  0  0
  2 17  1  0  0  0  0
  3  8  2  0  0  0  0
  4  6  1  0  0  0  0
  4 18  1  0  0  0  0
  4 19  1  0  0  0  0
  5  7  1  0  0  0  0
  5 20  1  0  0  0  0
  5 21  1  0  0  0  0
  6  7  1  0  0  0  0
  6 22  1  0  0  0  0
  6 23  1  0  0  0  0
  7 24  1  0  0  0  0
  7 25  1  0  0  0  0
  8  9  1  0  0  0  0
  8 26  1  0  0  0  0
  9 10  1  0  0  0  0
  9 27  1  0  0  0  0
  9 28  1  0  0  0  0
 10 11  1  0  0  0  0
 10 29  1  0  0  0  0
 10 30  1  0  0  0  0
 11 12  1  0  0  0  0
 11 31  1  0  0  0  0
 11 32  1  0  0  0  0
 12 13  1  0  0  0  0
 12 33  1  0  0  0  0
 12 34  1  0  0  0  0
 13 14  1  0  0  0  0
 13 35  1  0  0  0  0
 13 36  1  0  0  0  0
 14 15  1  0  0  0  0
 14 37  1  0  0  0  0
 14 38  1  0  0  0  0
 15 39  1  0  0  0  0
 15 40  1  0  0  0  0
 15 41  1  0  0  0  0
M  END
> <PUBCHEM_COMPOUND_CID>
584950

> <PUBCHEM_COMPOUND_CANONICALIZED>
1

> <PUBCHEM_CACTVS_COMPLEXITY>
200

> <PUBCHEM_CACTVS_HBOND_ACCEPTOR>
0

> <PUBCHEM_CACTVS_HBOND_DONOR>
0

> <PUBCHEM_CACTVS_ROTATABLE_BOND>
6

> <PUBCHEM_CACTVS_SUBSKEYS>
AAADceBwAAAAAAAAAAAAAAAAGAAAAAAAAAAwAAAABgAAAAAAAAAAGAAAAAAADQCAAAACAAAAAACAAiBCAAAAAAAgAAAACAAAAAgAAAIAAQAAAAAAgAAIAAMAgIAOAAAAAAAAAAAAAAAAAAAAAAAAAAAAAA==

> <PUBCHEM_IUPAC_OPENEYE_NAME>
7-octylidenenorcarane

> <PUBCHEM_IUPAC_CAS_NAME>
7-octylidenebicyclo[4.1.0]heptane

> <PUBCHEM_IUPAC_NAME_MARKUP>
7-octylidenebicyclo[4.1.0]heptane

> <PUBCHEM_IUPAC_NAME>
7-octylidenebicyclo[4.1.0]heptane

> <PUBCHEM_IUPAC_SYSTEMATIC_NAME>
7-octylidenebicyclo[4.1.0]heptane

> <PUBCHEM_IUPAC_TRADITIONAL_NAME>
7-octylidenenorcarane

> <PUBCHEM_IUPAC_INCHI>
InChI=1S/C15H26/c1-2-3-4-5-6-7-10-13-14-11-8-9-12-15(13)14/h10,14-15H,2-9,11-12H2,1H3

> <PUBCHEM_IUPAC_INCHIKEY>
GVWLBCNKADCHEY-UHFFFAOYSA-N

> <PUBCHEM_XLOGP3_AA>
5.9

> <PUBCHEM_EXACT_MASS>
206.203450829

> <PUBCHEM_MOLECULAR_FORMULA>
C15H26

> <PUBCHEM_MOLECULAR_WEIGHT>
206.37

> <PUBCHEM_SMILES>
CCCCCCCC=C1C2C1CCCC2

> <PUBCHEM_CONNECTIVITY_SMILES>
CCCCCCCC=C1C2C1CCCC2

> <PUBCHEM_CACTVS_TPSA>
0

> <PUBCHEM_MONOISOTOPIC_WEIGHT>
206.203450829

> <PUBCHEM_TOTAL_CHARGE>
0

> <PUBCHEM_HEAVY_ATOM_COUNT>
15

> <PUBCHEM_ATOM_DEF_STEREO_COUNT>
0

> <PUBCHEM_ATOM_UDEF_STEREO_COUNT>
2

> <PUBCHEM_BOND_DEF_STEREO_COUNT>
0

> <PUBCHEM_BOND_UDEF_STEREO_COUNT>
0

> <PUBCHEM_ISOTOPIC_ATOM_COUNT>
0

> <PUBCHEM_COMPONENT_COUNT>
1

> <PUBCHEM_CACTVS_TAUTO_COUNT>
-1

> <PUBCHEM_COORDINATE_TYPE>
1
5
255

> <PUBCHEM_BONDANNOTATIONS>
1  4  3
2  5  3

$$$$
