588699
  -OEChem-05122609452D

 32 33  0     1  0  0  0  0  0999 V2000
    4.6783   -1.4862    0.0000 C   0  0  3  0  0  0  0  0  0  0  0  0
    4.6783    0.1233    0.0000 C   0  0  0  0  0  0  0  0  0  0  0  0
    3.7320   -1.1815    0.0000 C   0  0  0  0  0  0  0  0  0  0  0  0
    3.7320   -0.1815    0.0000 C   0  0  0  0  0  0  0  0  0  0  0  0
    4.9889    1.0738    0.0000 C   0  0  0  0  0  0  0  0  0  0  0  0
    5.2619   -0.6815    0.0000 C   0  0  0  0  0  0  0  0  0  0  0  0
    5.9674    1.2800    0.0000 C   0  0  0  0  0  0  0  0  0  0  0  0
    4.9889   -2.4367    0.0000 C   0  0  0  0  0  0  0  0  0  0  0  0
    2.8660   -1.6815    0.0000 C   0  0  0  0  0  0  0  0  0  0  0  0
    2.8660    0.3185    0.0000 C   0  0  0  0  0  0  0  0  0  0  0  0
    6.2781    2.2305    0.0000 C   0  0  0  0  0  0  0  0  0  0  0  0
    2.0000   -1.1815    0.0000 C   0  0  0  0  0  0  0  0  0  0  0  0
    2.0000   -0.1815    0.0000 C   0  0  0  0  0  0  0  0  0  0  0  0
    7.2566    2.4367    0.0000 C   0  0  0  0  0  0  0  0  0  0  0  0
    5.2908   -1.5824    0.0000 H   0  0  0  0  0  0  0  0  0  0  0  0
    4.9684    1.6934    0.0000 H   0  0  0  0  0  0  0  0  0  0  0  0
    4.3751    1.1611    0.0000 H   0  0  0  0  0  0  0  0  0  0  0  0
    5.8819   -0.6815    0.0000 H   0  0  0  0  0  0  0  0  0  0  0  0
    5.9880    0.6603    0.0000 H   0  0  0  0  0  0  0  0  0  0  0  0
    6.5812    1.1926    0.0000 H   0  0  0  0  0  0  0  0  0  0  0  0
    4.3996   -2.6293    0.0000 H   0  0  0  0  0  0  0  0  0  0  0  0
    5.1815   -3.0260    0.0000 H   0  0  0  0  0  0  0  0  0  0  0  0
    5.5783   -2.2441    0.0000 H   0  0  0  0  0  0  0  0  0  0  0  0
    2.8660   -2.3015    0.0000 H   0  0  0  0  0  0  0  0  0  0  0  0
    2.8660    0.9385    0.0000 H   0  0  0  0  0  0  0  0  0  0  0  0
    6.2575    2.8502    0.0000 H   0  0  0  0  0  0  0  0  0  0  0  0
    5.6643    2.3179    0.0000 H   0  0  0  0  0  0  0  0  0  0  0  0
    1.4631   -1.4915    0.0000 H   0  0  0  0  0  0  0  0  0  0  0  0
    1.4631    0.1285    0.0000 H   0  0  0  0  0  0  0  0  0  0  0  0
    7.3845    1.8301    0.0000 H   0  0  0  0  0  0  0  0  0  0  0  0
    7.8633    2.5646    0.0000 H   0  0  0  0  0  0  0  0  0  0  0  0
    7.1288    3.0434    0.0000 H   0  0  0  0  0  0  0  0  0  0  0  0
  1  3  1  0  0  0  0
  1  6  1  0  0  0  0
  1  8  1  0  0  0  0
  1 15  1  0  0  0  0
  2  4  1  0  0  0  0
  2  5  1  0  0  0  0
  2  6  2  0  0  0  0
  3  4  1  0  0  0  0
  3  9  2  0  0  0  0
  4 10  2  0  0  0  0
  5  7  1  0  0  0  0
  5 16  1  0  0  0  0
  5 17  1  0  0  0  0
  6 18  1  0  0  0  0
  7 11  1  0  0  0  0
  7 19  1  0  0  0  0
  7 20  1  0  0  0  0
  8 21  1  0  0  0  0
  8 22  1  0  0  0  0
  8 23  1  0  0  0  0
  9 12  1  0  0  0  0
  9 24  1  0  0  0  0
 10 13  1  0  0  0  0
 10 25  1  0  0  0  0
 11 14  1  0  0  0  0
 11 26  1  0  0  0  0
 11 27  1  0  0  0  0
 12 13  2  0  0  0  0
 12 28  1  0  0  0  0
 13 29  1  0  0  0  0
 14 30  1  0  0  0  0
 14 31  1  0  0  0  0
 14 32  1  0  0  0  0
M  END
> <PUBCHEM_COMPOUND_CID>
588699

> <PUBCHEM_COMPOUND_CANONICALIZED>
1

> <PUBCHEM_CACTVS_COMPLEXITY>
214

> <PUBCHEM_CACTVS_HBOND_ACCEPTOR>
0

> <PUBCHEM_CACTVS_HBOND_DONOR>
0

> <PUBCHEM_CACTVS_ROTATABLE_BOND>
3

> <PUBCHEM_CACTVS_SUBSKEYS>
AAADceBwAAAAAAAAAAAAAAAAAAAAAQAAAAAwAAAAAAAAAEABAAAAGAAAAAAADQCAGAAyAIAAAACAAiBCAAACAAAgAAAIiAAAAIgIICKAERCAIAAggAAIiAcAgMAOgAAAAAAQAAAAAAAAACAAAAAAAAAAAA==

> <PUBCHEM_IUPAC_OPENEYE_NAME>
3-butyl-1-methyl-1H-indene

> <PUBCHEM_IUPAC_CAS_NAME>
3-butyl-1-methyl-1H-indene

> <PUBCHEM_IUPAC_NAME_MARKUP>
3-butyl-1-methyl-1<I>H</I>-indene

> <PUBCHEM_IUPAC_NAME>
3-butyl-1-methyl-1H-indene

> <PUBCHEM_IUPAC_SYSTEMATIC_NAME>
3-butyl-1-methyl-1H-indene

> <PUBCHEM_IUPAC_TRADITIONAL_NAME>
3-butyl-1-methyl-1H-indene

> <PUBCHEM_IUPAC_INCHI>
InChI=1S/C14H18/c1-3-4-7-12-10-11(2)13-8-5-6-9-14(12)13/h5-6,8-11H,3-4,7H2,1-2H3

> <PUBCHEM_IUPAC_INCHIKEY>
YANSVXAMGACZNP-UHFFFAOYSA-N

> <PUBCHEM_XLOGP3_AA>
4.5

> <PUBCHEM_EXACT_MASS>
186.140850574

> <PUBCHEM_MOLECULAR_FORMULA>
C14H18

> <PUBCHEM_MOLECULAR_WEIGHT>
186.29

> <PUBCHEM_SMILES>
CCCCC1=CC(C2=CC=CC=C21)C

> <PUBCHEM_CONNECTIVITY_SMILES>
CCCCC1=CC(C2=CC=CC=C21)C

> <PUBCHEM_CACTVS_TPSA>
0

> <PUBCHEM_MONOISOTOPIC_WEIGHT>
186.140850574

> <PUBCHEM_TOTAL_CHARGE>
0

> <PUBCHEM_HEAVY_ATOM_COUNT>
14

> <PUBCHEM_ATOM_DEF_STEREO_COUNT>
0

> <PUBCHEM_ATOM_UDEF_STEREO_COUNT>
1

> <PUBCHEM_BOND_DEF_STEREO_COUNT>
0

> <PUBCHEM_BOND_UDEF_STEREO_COUNT>
0

> <PUBCHEM_ISOTOPIC_ATOM_COUNT>
0

> <PUBCHEM_COMPONENT_COUNT>
1

> <PUBCHEM_CACTVS_TAUTO_COUNT>
-1

> <PUBCHEM_COORDINATE_TYPE>
1
5
255

> <PUBCHEM_BONDANNOTATIONS>
1  8  3
10  13  8
12  13  8
3  4  8
3  9  8
4  10  8
9  12  8

$$$$
