588778
  -OEChem-05122609502D

 26 27  0     1  0  0  0  0  0999 V2000
    4.6783    0.8047    0.0000 C   0  0  3  0  0  0  0  0  0  0  0  0
    5.2619   -0.0000    0.0000 C   0  0  0  0  0  0  0  0  0  0  0  0
    3.7320    0.5000    0.0000 C   0  0  0  0  0  0  0  0  0  0  0  0
    3.7320   -0.5000    0.0000 C   0  0  0  0  0  0  0  0  0  0  0  0
    4.6783   -0.8047    0.0000 C   0  0  0  0  0  0  0  0  0  0  0  0
    4.9889    1.7552    0.0000 C   0  0  0  0  0  0  0  0  0  0  0  0
    6.2619   -0.0000    0.0000 C   0  0  0  0  0  0  0  0  0  0  0  0
    2.8660    1.0000    0.0000 C   0  0  0  0  0  0  0  0  0  0  0  0
    2.8660   -1.0000    0.0000 C   0  0  0  0  0  0  0  0  0  0  0  0
    4.9889   -1.7552    0.0000 C   0  0  0  0  0  0  0  0  0  0  0  0
    2.0000    0.5000    0.0000 C   0  0  0  0  0  0  0  0  0  0  0  0
    2.0000   -0.5000    0.0000 C   0  0  0  0  0  0  0  0  0  0  0  0
    5.2908    0.9009    0.0000 H   0  0  0  0  0  0  0  0  0  0  0  0
    5.5783    1.5626    0.0000 H   0  0  0  0  0  0  0  0  0  0  0  0
    5.1815    2.3446    0.0000 H   0  0  0  0  0  0  0  0  0  0  0  0
    4.3996    1.9479    0.0000 H   0  0  0  0  0  0  0  0  0  0  0  0
    6.2619   -0.6200    0.0000 H   0  0  0  0  0  0  0  0  0  0  0  0
    6.8819   -0.0000    0.0000 H   0  0  0  0  0  0  0  0  0  0  0  0
    6.2619    0.6200    0.0000 H   0  0  0  0  0  0  0  0  0  0  0  0
    2.8660    1.6200    0.0000 H   0  0  0  0  0  0  0  0  0  0  0  0
    2.8660   -1.6200    0.0000 H   0  0  0  0  0  0  0  0  0  0  0  0
    4.3996   -1.9479    0.0000 H   0  0  0  0  0  0  0  0  0  0  0  0
    5.1815   -2.3446    0.0000 H   0  0  0  0  0  0  0  0  0  0  0  0
    5.5783   -1.5626    0.0000 H   0  0  0  0  0  0  0  0  0  0  0  0
    1.4631    0.8100    0.0000 H   0  0  0  0  0  0  0  0  0  0  0  0
    1.4631   -0.8100    0.0000 H   0  0  0  0  0  0  0  0  0  0  0  0
  1  2  1  0  0  0  0
  1  3  1  0  0  0  0
  1  6  1  0  0  0  0
  1 13  1  0  0  0  0
  2  5  2  0  0  0  0
  2  7  1  0  0  0  0
  3  4  1  0  0  0  0
  3  8  2  0  0  0  0
  4  5  1  0  0  0  0
  4  9  2  0  0  0  0
  5 10  1  0  0  0  0
  6 14  1  0  0  0  0
  6 15  1  0  0  0  0
  6 16  1  0  0  0  0
  7 17  1  0  0  0  0
  7 18  1  0  0  0  0
  7 19  1  0  0  0  0
  8 11  1  0  0  0  0
  8 20  1  0  0  0  0
  9 12  1  0  0  0  0
  9 21  1  0  0  0  0
 10 22  1  0  0  0  0
 10 23  1  0  0  0  0
 10 24  1  0  0  0  0
 11 12  2  0  0  0  0
 11 25  1  0  0  0  0
 12 26  1  0  0  0  0
M  END
> <PUBCHEM_COMPOUND_CID>
588778

> <PUBCHEM_COMPOUND_CANONICALIZED>
1

> <PUBCHEM_CACTVS_COMPLEXITY>
212

> <PUBCHEM_CACTVS_HBOND_ACCEPTOR>
0

> <PUBCHEM_CACTVS_HBOND_DONOR>
0

> <PUBCHEM_CACTVS_ROTATABLE_BOND>
0

> <PUBCHEM_CACTVS_SUBSKEYS>
AAADccBwAAAAAAAAAAAAAAAAAAAAAQAAAAAwAAAAAAAAAEABAAAAGAAAAAAADQCAGAAyAIAAAACAAiBCAAACAAAgAAAIiAAAAIgIICKAERCAIAAggAAIiAcAgMAOgAAAAAAQAAAAAAAAACAAAAAAAAAAAA==

> <PUBCHEM_IUPAC_OPENEYE_NAME>
1,2,3-trimethyl-1H-indene

> <PUBCHEM_IUPAC_CAS_NAME>
1,2,3-trimethyl-1H-indene

> <PUBCHEM_IUPAC_NAME_MARKUP>
1,2,3-trimethyl-1<I>H</I>-indene

> <PUBCHEM_IUPAC_NAME>
1,2,3-trimethyl-1H-indene

> <PUBCHEM_IUPAC_SYSTEMATIC_NAME>
1,2,3-trimethyl-1H-indene

> <PUBCHEM_IUPAC_TRADITIONAL_NAME>
1,2,3-trimethyl-1H-indene

> <PUBCHEM_IUPAC_INCHI>
InChI=1S/C12H14/c1-8-9(2)11-6-4-5-7-12(11)10(8)3/h4-7,9H,1-3H3

> <PUBCHEM_IUPAC_INCHIKEY>
NPXPQDMZVKFLKB-UHFFFAOYSA-N

> <PUBCHEM_XLOGP3_AA>
2.9

> <PUBCHEM_EXACT_MASS>
158.109550447

> <PUBCHEM_MOLECULAR_FORMULA>
C12H14

> <PUBCHEM_MOLECULAR_WEIGHT>
158.24

> <PUBCHEM_SMILES>
CC1C(=C(C2=CC=CC=C12)C)C

> <PUBCHEM_CONNECTIVITY_SMILES>
CC1C(=C(C2=CC=CC=C12)C)C

> <PUBCHEM_CACTVS_TPSA>
0

> <PUBCHEM_MONOISOTOPIC_WEIGHT>
158.109550447

> <PUBCHEM_TOTAL_CHARGE>
0

> <PUBCHEM_HEAVY_ATOM_COUNT>
12

> <PUBCHEM_ATOM_DEF_STEREO_COUNT>
0

> <PUBCHEM_ATOM_UDEF_STEREO_COUNT>
1

> <PUBCHEM_BOND_DEF_STEREO_COUNT>
0

> <PUBCHEM_BOND_UDEF_STEREO_COUNT>
0

> <PUBCHEM_ISOTOPIC_ATOM_COUNT>
0

> <PUBCHEM_COMPONENT_COUNT>
1

> <PUBCHEM_CACTVS_TAUTO_COUNT>
-1

> <PUBCHEM_COORDINATE_TYPE>
1
5
255

> <PUBCHEM_BONDANNOTATIONS>
1  6  3
11  12  8
3  4  8
3  8  8
4  9  8
8  11  8
9  12  8

$$$$
