591952
  -OEChem-05122609412D

 30 31  0     1  0  0  0  0  0999 V2000
    3.3660   -1.1830    0.0000 O   0  0  0  0  0  0  0  0  0  0  0  0
    3.8660   -0.3170    0.0000 C   0  0  3  0  0  0  0  0  0  0  0  0
    3.0000    0.1830    0.0000 C   0  0  0  0  0  0  0  0  0  0  0  0
    4.3660   -1.1830    0.0000 C   0  0  3  0  0  0  0  0  0  0  0  0
    3.0000    1.1830    0.0000 C   0  0  0  0  0  0  0  0  0  0  0  0
    4.7320    0.1830    0.0000 C   0  0  0  0  0  0  0  0  0  0  0  0
    3.8660    1.6830    0.0000 C   0  0  0  0  0  0  0  0  0  0  0  0
    4.7320    1.1830    0.0000 C   0  0  0  0  0  0  0  0  0  0  0  0
    2.0000    0.1830    0.0000 C   0  0  0  0  0  0  0  0  0  0  0  0
    2.5000   -0.6830    0.0000 C   0  0  0  0  0  0  0  0  0  0  0  0
    5.2320   -1.6830    0.0000 C   0  0  0  0  0  0  0  0  0  0  0  0
    5.5981   -0.3170    0.0000 C   0  0  0  0  0  0  0  0  0  0  0  0
    4.2056   -1.7819    0.0000 H   0  0  0  0  0  0  0  0  0  0  0  0
    2.7880    1.7656    0.0000 H   0  0  0  0  0  0  0  0  0  0  0  0
    2.3894    1.0754    0.0000 H   0  0  0  0  0  0  0  0  0  0  0  0
    4.2646    2.1580    0.0000 H   0  0  0  0  0  0  0  0  0  0  0  0
    3.4675    2.1580    0.0000 H   0  0  0  0  0  0  0  0  0  0  0  0
    5.3426    1.0754    0.0000 H   0  0  0  0  0  0  0  0  0  0  0  0
    4.9441    1.7656    0.0000 H   0  0  0  0  0  0  0  0  0  0  0  0
    2.0000    0.8030    0.0000 H   0  0  0  0  0  0  0  0  0  0  0  0
    1.3800    0.1830    0.0000 H   0  0  0  0  0  0  0  0  0  0  0  0
    2.0000   -0.4370    0.0000 H   0  0  0  0  0  0  0  0  0  0  0  0
    1.9631   -0.3730    0.0000 H   0  0  0  0  0  0  0  0  0  0  0  0
    2.1900   -1.2200    0.0000 H   0  0  0  0  0  0  0  0  0  0  0  0
    3.0369   -0.9930    0.0000 H   0  0  0  0  0  0  0  0  0  0  0  0
    4.9220   -2.2200    0.0000 H   0  0  0  0  0  0  0  0  0  0  0  0
    5.7690   -1.9930    0.0000 H   0  0  0  0  0  0  0  0  0  0  0  0
    5.5420   -1.1461    0.0000 H   0  0  0  0  0  0  0  0  0  0  0  0
    5.5981   -0.9370    0.0000 H   0  0  0  0  0  0  0  0  0  0  0  0
    6.1350   -0.0070    0.0000 H   0  0  0  0  0  0  0  0  0  0  0  0
  1  2  1  0  0  0  0
  1  4  1  0  0  0  0
  2  3  1  0  0  0  0
  2  4  1  0  0  0  0
  2  6  1  0  0  0  0
  3  5  1  0  0  0  0
  3  9  1  0  0  0  0
  3 10  1  0  0  0  0
  4 11  1  0  0  0  0
  4 13  1  0  0  0  0
  5  7  1  0  0  0  0
  5 14  1  0  0  0  0
  5 15  1  0  0  0  0
  6  8  1  0  0  0  0
  6 12  2  0  0  0  0
  7  8  1  0  0  0  0
  7 16  1  0  0  0  0
  7 17  1  0  0  0  0
  8 18  1  0  0  0  0
  8 19  1  0  0  0  0
  9 20  1  0  0  0  0
  9 21  1  0  0  0  0
  9 22  1  0  0  0  0
 10 23  1  0  0  0  0
 10 24  1  0  0  0  0
 10 25  1  0  0  0  0
 11 26  1  0  0  0  0
 11 27  1  0  0  0  0
 11 28  1  0  0  0  0
 12 29  1  0  0  0  0
 12 30  1  0  0  0  0
M  END
> <PUBCHEM_COMPOUND_CID>
591952

> <PUBCHEM_COMPOUND_CANONICALIZED>
1

> <PUBCHEM_CACTVS_COMPLEXITY>
229

> <PUBCHEM_CACTVS_HBOND_ACCEPTOR>
1

> <PUBCHEM_CACTVS_HBOND_DONOR>
0

> <PUBCHEM_CACTVS_ROTATABLE_BOND>
0

> <PUBCHEM_CACTVS_SUBSKEYS>
AAADceBwIAAAAAAAAAAAAAAAEgAAAAAAAAAwAAAAAAAAAAAAAAAAGgAAAAAADlSggAICAAAABACAAgBCAAAAAAAgAAAAAAAAAAgABAIAIQACAAAEwAAAIAGAwOAPgAAAAAAAAAAAAAAAADAAAAAAAAAAAA==

> <PUBCHEM_IUPAC_OPENEYE_NAME>
2,4,4-trimethyl-8-methylene-1-oxaspiro[2.5]octane

> <PUBCHEM_IUPAC_CAS_NAME>
2,4,4-trimethyl-8-methylene-1-oxaspiro[2.5]octane

> <PUBCHEM_IUPAC_NAME_MARKUP>
2,4,4-trimethyl-8-methylidene-1-oxaspiro[2.5]octane

> <PUBCHEM_IUPAC_NAME>
2,4,4-trimethyl-8-methylidene-1-oxaspiro[2.5]octane

> <PUBCHEM_IUPAC_SYSTEMATIC_NAME>
2,4,4-trimethyl-8-methylidene-1-oxaspiro[2.5]octane

> <PUBCHEM_IUPAC_TRADITIONAL_NAME>
2,4,4-trimethyl-8-methylene-1-oxaspiro[2.5]octane

> <PUBCHEM_IUPAC_INCHI>
InChI=1S/C11H18O/c1-8-6-5-7-10(3,4)11(8)9(2)12-11/h9H,1,5-7H2,2-4H3

> <PUBCHEM_IUPAC_INCHIKEY>
JRHUOIKXOCZMKH-UHFFFAOYSA-N

> <PUBCHEM_XLOGP3_AA>
2.5

> <PUBCHEM_EXACT_MASS>
166.135765193

> <PUBCHEM_MOLECULAR_FORMULA>
C11H18O

> <PUBCHEM_MOLECULAR_WEIGHT>
166.26

> <PUBCHEM_SMILES>
CC1C2(O1)C(=C)CCCC2(C)C

> <PUBCHEM_CONNECTIVITY_SMILES>
CC1C2(O1)C(=C)CCCC2(C)C

> <PUBCHEM_CACTVS_TPSA>
12.5

> <PUBCHEM_MONOISOTOPIC_WEIGHT>
166.135765193

> <PUBCHEM_TOTAL_CHARGE>
0

> <PUBCHEM_HEAVY_ATOM_COUNT>
12

> <PUBCHEM_ATOM_DEF_STEREO_COUNT>
0

> <PUBCHEM_ATOM_UDEF_STEREO_COUNT>
2

> <PUBCHEM_BOND_DEF_STEREO_COUNT>
0

> <PUBCHEM_BOND_UDEF_STEREO_COUNT>
0

> <PUBCHEM_ISOTOPIC_ATOM_COUNT>
0

> <PUBCHEM_COMPONENT_COUNT>
1

> <PUBCHEM_CACTVS_TAUTO_COUNT>
-1

> <PUBCHEM_COORDINATE_TYPE>
1
5
255

> <PUBCHEM_BONDANNOTATIONS>
2  4  3
4  11  3

$$$$
