594893
  -OEChem-05122609412D

 30 31  0     1  0  0  0  0  0999 V2000
    2.8660    0.3261    0.0000 N   0  0  3  0  0  0  0  0  0  0  0  0
    3.3660    1.8649    0.0000 C   0  0  3  0  0  0  0  0  0  0  0  0
    3.6750    0.9139    0.0000 C   0  0  3  0  0  0  0  0  0  0  0  0
    2.3660    1.8649    0.0000 C   0  0  0  0  0  0  0  0  0  0  0  0
    2.0570    0.9139    0.0000 C   0  0  0  0  0  0  0  0  0  0  0  0
    3.9538    2.6739    0.0000 C   0  0  0  0  0  0  0  0  0  0  0  0
    4.6261    0.6048    0.0000 C   0  0  0  0  0  0  0  0  0  0  0  0
    2.8660   -0.6739    0.0000 C   0  0  0  0  0  0  0  0  0  0  0  0
    3.7320   -1.1739    0.0000 C   0  0  0  0  0  0  0  0  0  0  0  0
    2.0000   -1.1739    0.0000 C   0  0  0  0  0  0  0  0  0  0  0  0
    3.7320   -2.1739    0.0000 C   0  0  0  0  0  0  0  0  0  0  0  0
    2.0000   -2.1739    0.0000 C   0  0  0  0  0  0  0  0  0  0  0  0
    2.8660   -2.6739    0.0000 C   0  0  0  0  0  0  0  0  0  0  0  0
    3.9784    1.7679    0.0000 H   0  0  0  0  0  0  0  0  0  0  0  0
    3.7720    0.3015    0.0000 H   0  0  0  0  0  0  0  0  0  0  0  0
    2.4308    2.4815    0.0000 H   0  0  0  0  0  0  0  0  0  0  0  0
    1.7596    1.9938    0.0000 H   0  0  0  0  0  0  0  0  0  0  0  0
    1.4906    1.1660    0.0000 H   0  0  0  0  0  0  0  0  0  0  0  0
    1.7470    0.3769    0.0000 H   0  0  0  0  0  0  0  0  0  0  0  0
    4.4554    2.3095    0.0000 H   0  0  0  0  0  0  0  0  0  0  0  0
    4.3182    3.1755    0.0000 H   0  0  0  0  0  0  0  0  0  0  0  0
    3.4522    3.0384    0.0000 H   0  0  0  0  0  0  0  0  0  0  0  0
    4.4345    0.0152    0.0000 H   0  0  0  0  0  0  0  0  0  0  0  0
    5.2158    0.4132    0.0000 H   0  0  0  0  0  0  0  0  0  0  0  0
    4.8177    1.1945    0.0000 H   0  0  0  0  0  0  0  0  0  0  0  0
    4.2690   -0.8639    0.0000 H   0  0  0  0  0  0  0  0  0  0  0  0
    1.4631   -0.8639    0.0000 H   0  0  0  0  0  0  0  0  0  0  0  0
    4.2690   -2.4839    0.0000 H   0  0  0  0  0  0  0  0  0  0  0  0
    1.4631   -2.4839    0.0000 H   0  0  0  0  0  0  0  0  0  0  0  0
    2.8660   -3.2939    0.0000 H   0  0  0  0  0  0  0  0  0  0  0  0
  1  3  1  0  0  0  0
  1  5  1  0  0  0  0
  1  8  1  0  0  0  0
  2  3  1  0  0  0  0
  2  4  1  0  0  0  0
  2  6  1  0  0  0  0
  2 14  1  0  0  0  0
  3  7  1  0  0  0  0
  3 15  1  0  0  0  0
  4  5  1  0  0  0  0
  4 16  1  0  0  0  0
  4 17  1  0  0  0  0
  5 18  1  0  0  0  0
  5 19  1  0  0  0  0
  6 20  1  0  0  0  0
  6 21  1  0  0  0  0
  6 22  1  0  0  0  0
  7 23  1  0  0  0  0
  7 24  1  0  0  0  0
  7 25  1  0  0  0  0
  8  9  2  0  0  0  0
  8 10  1  0  0  0  0
  9 11  1  0  0  0  0
  9 26  1  0  0  0  0
 10 12  2  0  0  0  0
 10 27  1  0  0  0  0
 11 13  2  0  0  0  0
 11 28  1  0  0  0  0
 12 13  1  0  0  0  0
 12 29  1  0  0  0  0
 13 30  1  0  0  0  0
M  END
> <PUBCHEM_COMPOUND_CID>
594893

> <PUBCHEM_COMPOUND_CANONICALIZED>
1

> <PUBCHEM_CACTVS_COMPLEXITY>
161

> <PUBCHEM_CACTVS_HBOND_ACCEPTOR>
1

> <PUBCHEM_CACTVS_HBOND_DONOR>
0

> <PUBCHEM_CACTVS_ROTATABLE_BOND>
1

> <PUBCHEM_CACTVS_SUBSKEYS>
AAADceByAAAAAAAAAAAAAAAAAAAAAWAAAAAwAAAAAAAAAAABAAAAHAAAAAAADSjBEAQywIMAAACAACRCQACCAAAhAgAIiAAIZIgIICLAkZGEIAhggADIyAcQAAAKAAAAAAAAAAAAAAAAAAAAAAAAAAAAAA==

> <PUBCHEM_IUPAC_OPENEYE_NAME>
2,3-dimethyl-1-phenyl-pyrrolidine

> <PUBCHEM_IUPAC_CAS_NAME>
2,3-dimethyl-1-phenylpyrrolidine

> <PUBCHEM_IUPAC_NAME_MARKUP>
2,3-dimethyl-1-phenylpyrrolidine

> <PUBCHEM_IUPAC_NAME>
2,3-dimethyl-1-phenylpyrrolidine

> <PUBCHEM_IUPAC_SYSTEMATIC_NAME>
2,3-dimethyl-1-phenyl-pyrrolidine

> <PUBCHEM_IUPAC_TRADITIONAL_NAME>
2,3-dimethyl-1-phenyl-pyrrolidine

> <PUBCHEM_IUPAC_INCHI>
InChI=1S/C12H17N/c1-10-8-9-13(11(10)2)12-6-4-3-5-7-12/h3-7,10-11H,8-9H2,1-2H3

> <PUBCHEM_IUPAC_INCHIKEY>
RZZBXQJZKKGYHZ-UHFFFAOYSA-N

> <PUBCHEM_XLOGP3_AA>
3.4

> <PUBCHEM_EXACT_MASS>
175.136099547

> <PUBCHEM_MOLECULAR_FORMULA>
C12H17N

> <PUBCHEM_MOLECULAR_WEIGHT>
175.27

> <PUBCHEM_SMILES>
CC1CCN(C1C)C2=CC=CC=C2

> <PUBCHEM_CONNECTIVITY_SMILES>
CC1CCN(C1C)C2=CC=CC=C2

> <PUBCHEM_CACTVS_TPSA>
3.2

> <PUBCHEM_MONOISOTOPIC_WEIGHT>
175.136099547

> <PUBCHEM_TOTAL_CHARGE>
0

> <PUBCHEM_HEAVY_ATOM_COUNT>
13

> <PUBCHEM_ATOM_DEF_STEREO_COUNT>
0

> <PUBCHEM_ATOM_UDEF_STEREO_COUNT>
2

> <PUBCHEM_BOND_DEF_STEREO_COUNT>
0

> <PUBCHEM_BOND_UDEF_STEREO_COUNT>
0

> <PUBCHEM_ISOTOPIC_ATOM_COUNT>
0

> <PUBCHEM_COMPONENT_COUNT>
1

> <PUBCHEM_CACTVS_TAUTO_COUNT>
-1

> <PUBCHEM_COORDINATE_TYPE>
1
5
255

> <PUBCHEM_BONDANNOTATIONS>
10  12  8
11  13  8
12  13  8
2  6  3
3  7  3
8  10  8
8  9  8
9  11  8

$$$$
