59510331
  -OEChem-05122608322D

 74 76  0     0  0  0  0  0  0999 V2000
    5.4641   -2.5000    0.0000 O   0  0  0  0  0  0  0  0  0  0  0  0
    7.1962    2.5000    0.0000 O   0  0  0  0  0  0  0  0  0  0  0  0
    3.7321   -6.5000    0.0000 O   0  0  0  0  0  0  0  0  0  0  0  0
    8.9282    6.5000    0.0000 O   0  0  0  0  0  0  0  0  0  0  0  0
    7.1962   -2.5000    0.0000 O   0  0  0  0  0  0  0  0  0  0  0  0
    5.4641    2.5000    0.0000 O   0  0  0  0  0  0  0  0  0  0  0  0
    2.0000   -6.5000    0.0000 O   0  0  0  0  0  0  0  0  0  0  0  0
   10.6603    6.5000    0.0000 O   0  0  0  0  0  0  0  0  0  0  0  0
    2.0000  -11.5000    0.0000 O   0  0  0  0  0  0  0  0  0  0  0  0
   10.6603   11.5000    0.0000 O   0  0  0  0  0  0  0  0  0  0  0  0
    3.7321  -11.5000    0.0000 O   0  0  0  0  0  0  0  0  0  0  0  0
    8.9282   11.5000    0.0000 O   0  0  0  0  0  0  0  0  0  0  0  0
    4.5981   -4.0000    0.0000 C   0  0  0  0  0  0  0  0  0  0  0  0
    8.0622    4.0000    0.0000 C   0  0  0  0  0  0  0  0  0  0  0  0
    4.5981   -5.0000    0.0000 C   0  0  0  0  0  0  0  0  0  0  0  0
    8.0622    5.0000    0.0000 C   0  0  0  0  0  0  0  0  0  0  0  0
    5.4641   -3.5000    0.0000 C   0  0  0  0  0  0  0  0  0  0  0  0
    7.1962    3.5000    0.0000 C   0  0  0  0  0  0  0  0  0  0  0  0
    3.7321   -5.5000    0.0000 C   0  0  0  0  0  0  0  0  0  0  0  0
    8.9282    5.5000    0.0000 C   0  0  0  0  0  0  0  0  0  0  0  0
    6.3301   -1.0000    0.0000 C   0  0  0  0  0  0  0  0  0  0  0  0
    6.3301    1.0000    0.0000 C   0  0  0  0  0  0  0  0  0  0  0  0
    6.3301   -2.0000    0.0000 C   0  0  0  0  0  0  0  0  0  0  0  0
    6.3301    2.0000    0.0000 C   0  0  0  0  0  0  0  0  0  0  0  0
    5.4641   -0.5000    0.0000 C   0  0  0  0  0  0  0  0  0  0  0  0
    5.4641    0.5000    0.0000 C   0  0  0  0  0  0  0  0  0  0  0  0
    7.1962   -0.5000    0.0000 C   0  0  0  0  0  0  0  0  0  0  0  0
    7.1962    0.5000    0.0000 C   0  0  0  0  0  0  0  0  0  0  0  0
    2.8660   -7.0000    0.0000 C   0  0  0  0  0  0  0  0  0  0  0  0
    9.7942    7.0000    0.0000 C   0  0  0  0  0  0  0  0  0  0  0  0
    2.8660   -8.0000    0.0000 C   0  0  0  0  0  0  0  0  0  0  0  0
    9.7942    8.0000    0.0000 C   0  0  0  0  0  0  0  0  0  0  0  0
    2.0000   -8.5000    0.0000 C   0  0  0  0  0  0  0  0  0  0  0  0
    8.9282    8.5000    0.0000 C   0  0  0  0  0  0  0  0  0  0  0  0
    3.7321   -8.5000    0.0000 C   0  0  0  0  0  0  0  0  0  0  0  0
   10.6603    8.5000    0.0000 C   0  0  0  0  0  0  0  0  0  0  0  0
    2.8660  -10.0000    0.0000 C   0  0  0  0  0  0  0  0  0  0  0  0
    9.7942   10.0000    0.0000 C   0  0  0  0  0  0  0  0  0  0  0  0
    2.0000   -9.5000    0.0000 C   0  0  0  0  0  0  0  0  0  0  0  0
    8.9282    9.5000    0.0000 C   0  0  0  0  0  0  0  0  0  0  0  0
    3.7321   -9.5000    0.0000 C   0  0  0  0  0  0  0  0  0  0  0  0
   10.6603    9.5000    0.0000 C   0  0  0  0  0  0  0  0  0  0  0  0
    2.8660  -11.0000    0.0000 C   0  0  0  0  0  0  0  0  0  0  0  0
    9.7942   11.0000    0.0000 C   0  0  0  0  0  0  0  0  0  0  0  0
    4.3860   -3.4174    0.0000 H   0  0  0  0  0  0  0  0  0  0  0  0
    3.9875   -4.1077    0.0000 H   0  0  0  0  0  0  0  0  0  0  0  0
    8.2742    3.4174    0.0000 H   0  0  0  0  0  0  0  0  0  0  0  0
    8.6728    4.1077    0.0000 H   0  0  0  0  0  0  0  0  0  0  0  0
    4.8101   -5.5826    0.0000 H   0  0  0  0  0  0  0  0  0  0  0  0
    5.2087   -4.8923    0.0000 H   0  0  0  0  0  0  0  0  0  0  0  0
    7.8501    5.5826    0.0000 H   0  0  0  0  0  0  0  0  0  0  0  0
    7.4516    4.8923    0.0000 H   0  0  0  0  0  0  0  0  0  0  0  0
    5.6762   -4.0826    0.0000 H   0  0  0  0  0  0  0  0  0  0  0  0
    6.0747   -3.3923    0.0000 H   0  0  0  0  0  0  0  0  0  0  0  0
    6.9841    4.0826    0.0000 H   0  0  0  0  0  0  0  0  0  0  0  0
    6.5856    3.3923    0.0000 H   0  0  0  0  0  0  0  0  0  0  0  0
    3.5200   -4.9174    0.0000 H   0  0  0  0  0  0  0  0  0  0  0  0
    3.1215   -5.6077    0.0000 H   0  0  0  0  0  0  0  0  0  0  0  0
    9.1403    4.9174    0.0000 H   0  0  0  0  0  0  0  0  0  0  0  0
    9.5388    5.6077    0.0000 H   0  0  0  0  0  0  0  0  0  0  0  0
    4.9272   -0.8100    0.0000 H   0  0  0  0  0  0  0  0  0  0  0  0
    4.9272    0.8100    0.0000 H   0  0  0  0  0  0  0  0  0  0  0  0
    7.7331   -0.8100    0.0000 H   0  0  0  0  0  0  0  0  0  0  0  0
    7.7331    0.8100    0.0000 H   0  0  0  0  0  0  0  0  0  0  0  0
    1.4631   -8.1900    0.0000 H   0  0  0  0  0  0  0  0  0  0  0  0
    8.3913    8.1900    0.0000 H   0  0  0  0  0  0  0  0  0  0  0  0
    4.2690   -8.1900    0.0000 H   0  0  0  0  0  0  0  0  0  0  0  0
   11.1972    8.1900    0.0000 H   0  0  0  0  0  0  0  0  0  0  0  0
    1.4631   -9.8100    0.0000 H   0  0  0  0  0  0  0  0  0  0  0  0
    8.3913    9.8100    0.0000 H   0  0  0  0  0  0  0  0  0  0  0  0
    4.2690   -9.8100    0.0000 H   0  0  0  0  0  0  0  0  0  0  0  0
   11.1972    9.8100    0.0000 H   0  0  0  0  0  0  0  0  0  0  0  0
    2.0000  -12.1200    0.0000 H   0  0  0  0  0  0  0  0  0  0  0  0
   10.6603   12.1200    0.0000 H   0  0  0  0  0  0  0  0  0  0  0  0
  1 17  1  0  0  0  0
  1 23  1  0  0  0  0
  2 18  1  0  0  0  0
  2 24  1  0  0  0  0
  3 19  1  0  0  0  0
  3 29  1  0  0  0  0
  4 20  1  0  0  0  0
  4 30  1  0  0  0  0
  5 23  2  0  0  0  0
  6 24  2  0  0  0  0
  7 29  2  0  0  0  0
  8 30  2  0  0  0  0
  9 43  1  0  0  0  0
  9 73  1  0  0  0  0
 10 44  1  0  0  0  0
 10 74  1  0  0  0  0
 11 43  2  0  0  0  0
 12 44  2  0  0  0  0
 13 15  1  0  0  0  0
 13 17  1  0  0  0  0
 13 45  1  0  0  0  0
 13 46  1  0  0  0  0
 14 16  1  0  0  0  0
 14 18  1  0  0  0  0
 14 47  1  0  0  0  0
 14 48  1  0  0  0  0
 15 19  1  0  0  0  0
 15 49  1  0  0  0  0
 15 50  1  0  0  0  0
 16 20  1  0  0  0  0
 16 51  1  0  0  0  0
 16 52  1  0  0  0  0
 17 53  1  0  0  0  0
 17 54  1  0  0  0  0
 18 55  1  0  0  0  0
 18 56  1  0  0  0  0
 19 57  1  0  0  0  0
 19 58  1  0  0  0  0
 20 59  1  0  0  0  0
 20 60  1  0  0  0  0
 21 23  1  0  0  0  0
 21 25  2  0  0  0  0
 21 27  1  0  0  0  0
 22 24  1  0  0  0  0
 22 26  2  0  0  0  0
 22 28  1  0  0  0  0
 25 26  1  0  0  0  0
 25 61  1  0  0  0  0
 26 62  1  0  0  0  0
 27 28  2  0  0  0  0
 27 63  1  0  0  0  0
 28 64  1  0  0  0  0
 29 31  1  0  0  0  0
 30 32  1  0  0  0  0
 31 33  2  0  0  0  0
 31 35  1  0  0  0  0
 32 34  2  0  0  0  0
 32 36  1  0  0  0  0
 33 39  1  0  0  0  0
 33 65  1  0  0  0  0
 34 40  1  0  0  0  0
 34 66  1  0  0  0  0
 35 41  2  0  0  0  0
 35 67  1  0  0  0  0
 36 42  2  0  0  0  0
 36 68  1  0  0  0  0
 37 39  2  0  0  0  0
 37 41  1  0  0  0  0
 37 43  1  0  0  0  0
 38 40  2  0  0  0  0
 38 42  1  0  0  0  0
 38 44  1  0  0  0  0
 39 69  1  0  0  0  0
 40 70  1  0  0  0  0
 41 71  1  0  0  0  0
 42 72  1  0  0  0  0
M  END
> <PUBCHEM_COMPOUND_CID>
59510331

> <PUBCHEM_COMPOUND_CANONICALIZED>
1

> <PUBCHEM_CACTVS_COMPLEXITY>
892

> <PUBCHEM_CACTVS_HBOND_ACCEPTOR>
12

> <PUBCHEM_CACTVS_HBOND_DONOR>
2

> <PUBCHEM_CACTVS_ROTATABLE_BOND>
20

> <PUBCHEM_CACTVS_SUBSKEYS>
AAADceB8PAAAAAAAAAAAAAAAAAAAAAAAAAAwYMAAAAAAAAABUAAAGgAACAAADACgmAIwCIAABgCIAiDSCAACAAAkAAAIiAEACMgIJjKANRiCcQAkwAEIuYfIyDCOQAAAAAAAAACAAAAAAAAAAAAAAAAAAA==

> <PUBCHEM_IUPAC_OPENEYE_NAME>
4-[4-[4-[4-(4-carboxybenzoyl)oxybutoxycarbonyl]benzoyl]oxybutoxycarbonyl]benzoic acid

> <PUBCHEM_IUPAC_CAS_NAME>
4-[4-[[4-[4-[(4-carboxyphenyl)-oxomethoxy]butoxy-oxomethyl]phenyl]-oxomethoxy]butoxy-oxomethyl]benzoic acid

> <PUBCHEM_IUPAC_NAME_MARKUP>
4-[4-[4-[4-(4-carboxybenzoyl)oxybutoxycarbonyl]benzoyl]oxybutoxycarbonyl]benzoic acid

> <PUBCHEM_IUPAC_NAME>
4-[4-[4-[4-(4-carboxybenzoyl)oxybutoxycarbonyl]benzoyl]oxybutoxycarbonyl]benzoic acid

> <PUBCHEM_IUPAC_SYSTEMATIC_NAME>
4-[4-[4-[4-(4-carboxyphenyl)carbonyloxybutoxycarbonyl]phenyl]carbonyloxybutoxycarbonyl]benzoic acid

> <PUBCHEM_IUPAC_TRADITIONAL_NAME>
4-[4-[4-[4-(4-carboxybenzoyl)oxybutoxycarbonyl]benzoyl]oxybutoxycarbonyl]benzoic acid

> <PUBCHEM_IUPAC_INCHI>
InChI=1S/C32H30O12/c33-27(34)21-5-9-23(10-6-21)29(37)41-17-1-3-19-43-31(39)25-13-15-26(16-14-25)32(40)44-20-4-2-18-42-30(38)24-11-7-22(8-12-24)28(35)36/h5-16H,1-4,17-20H2,(H,33,34)(H,35,36)

> <PUBCHEM_IUPAC_INCHIKEY>
BHMFRRBMONBZNQ-UHFFFAOYSA-N

> <PUBCHEM_XLOGP3_AA>
5.2

> <PUBCHEM_EXACT_MASS>
606.17372639

> <PUBCHEM_MOLECULAR_FORMULA>
C32H30O12

> <PUBCHEM_MOLECULAR_WEIGHT>
606.6

> <PUBCHEM_SMILES>
C1=CC(=CC=C1C(=O)O)C(=O)OCCCCOC(=O)C2=CC=C(C=C2)C(=O)OCCCCOC(=O)C3=CC=C(C=C3)C(=O)O

> <PUBCHEM_CONNECTIVITY_SMILES>
C1=CC(=CC=C1C(=O)O)C(=O)OCCCCOC(=O)C2=CC=C(C=C2)C(=O)OCCCCOC(=O)C3=CC=C(C=C3)C(=O)O

> <PUBCHEM_CACTVS_TPSA>
180

> <PUBCHEM_MONOISOTOPIC_WEIGHT>
606.17372639

> <PUBCHEM_TOTAL_CHARGE>
0

> <PUBCHEM_HEAVY_ATOM_COUNT>
44

> <PUBCHEM_ATOM_DEF_STEREO_COUNT>
0

> <PUBCHEM_ATOM_UDEF_STEREO_COUNT>
0

> <PUBCHEM_BOND_DEF_STEREO_COUNT>
0

> <PUBCHEM_BOND_UDEF_STEREO_COUNT>
0

> <PUBCHEM_ISOTOPIC_ATOM_COUNT>
0

> <PUBCHEM_COMPONENT_COUNT>
1

> <PUBCHEM_CACTVS_TAUTO_COUNT>
-1

> <PUBCHEM_COORDINATE_TYPE>
1
5
255

> <PUBCHEM_BONDANNOTATIONS>
21  25  8
21  27  8
22  26  8
22  28  8
25  26  8
27  28  8
31  33  8
31  35  8
32  34  8
32  36  8
33  39  8
34  40  8
35  41  8
36  42  8
37  39  8
37  41  8
38  40  8
38  42  8

$$$$
