596849
  -OEChem-05122609152D

 25 27  0     0  0  0  0  0  0999 V2000
    5.3364    0.5740    0.0000 C   0  0  0  0  0  0  0  0  0  0  0  0
    5.0274   -0.3771    0.0000 C   0  0  0  0  0  0  0  0  0  0  0  0
    4.5274    1.1618    0.0000 C   0  0  0  0  0  0  0  0  0  0  0  0
    4.0274   -0.3771    0.0000 C   0  0  0  0  0  0  0  0  0  0  0  0
    3.7183    0.5740    0.0000 C   0  0  0  0  0  0  0  0  0  0  0  0
    6.3518    0.8063    0.0000 C   0  0  0  0  0  0  0  0  0  0  0  0
    5.7123   -1.1618    0.0000 C   0  0  0  0  0  0  0  0  0  0  0  0
    7.0547    0.0376    0.0000 C   0  0  0  0  0  0  0  0  0  0  0  0
    6.7328   -0.9531    0.0000 C   0  0  0  0  0  0  0  0  0  0  0  0
    3.3424   -1.1618    0.0000 C   0  0  0  0  0  0  0  0  0  0  0  0
    2.7029    0.8063    0.0000 C   0  0  0  0  0  0  0  0  0  0  0  0
    2.3219   -0.9531    0.0000 C   0  0  0  0  0  0  0  0  0  0  0  0
    2.0000    0.0376    0.0000 C   0  0  0  0  0  0  0  0  0  0  0  0
    4.9422    1.6225    0.0000 H   0  0  0  0  0  0  0  0  0  0  0  0
    4.1125    1.6225    0.0000 H   0  0  0  0  0  0  0  0  0  0  0  0
    6.8742    1.1402    0.0000 H   0  0  0  0  0  0  0  0  0  0  0  0
    6.1122    1.3781    0.0000 H   0  0  0  0  0  0  0  0  0  0  0  0
    5.1824   -1.4836    0.0000 H   0  0  0  0  0  0  0  0  0  0  0  0
    5.9387   -1.7390    0.0000 H   0  0  0  0  0  0  0  0  0  0  0  0
    7.6607    0.1688    0.0000 H   0  0  0  0  0  0  0  0  0  0  0  0
    7.1459   -1.4154    0.0000 H   0  0  0  0  0  0  0  0  0  0  0  0
    3.5408   -1.7492    0.0000 H   0  0  0  0  0  0  0  0  0  0  0  0
    2.5182    1.3981    0.0000 H   0  0  0  0  0  0  0  0  0  0  0  0
    1.9088   -1.4154    0.0000 H   0  0  0  0  0  0  0  0  0  0  0  0
    1.3940    0.1688    0.0000 H   0  0  0  0  0  0  0  0  0  0  0  0
  1  2  2  0  0  0  0
  1  3  1  0  0  0  0
  1  6  1  0  0  0  0
  2  4  1  0  0  0  0
  2  7  1  0  0  0  0
  3  5  1  0  0  0  0
  3 14  1  0  0  0  0
  3 15  1  0  0  0  0
  4  5  1  0  0  0  0
  4 10  2  0  0  0  0
  5 11  2  0  0  0  0
  6  8  1  0  0  0  0
  6 16  1  0  0  0  0
  6 17  1  0  0  0  0
  7  9  1  0  0  0  0
  7 18  1  0  0  0  0
  7 19  1  0  0  0  0
  8  9  2  0  0  0  0
  8 20  1  0  0  0  0
  9 21  1  0  0  0  0
 10 12  1  0  0  0  0
 10 22  1  0  0  0  0
 11 13  1  0  0  0  0
 11 23  1  0  0  0  0
 12 13  2  0  0  0  0
 12 24  1  0  0  0  0
 13 25  1  0  0  0  0
M  END
> <PUBCHEM_COMPOUND_CID>
596849

> <PUBCHEM_COMPOUND_CANONICALIZED>
1

> <PUBCHEM_CACTVS_COMPLEXITY>
270

> <PUBCHEM_CACTVS_HBOND_ACCEPTOR>
0

> <PUBCHEM_CACTVS_HBOND_DONOR>
0

> <PUBCHEM_CACTVS_ROTATABLE_BOND>
0

> <PUBCHEM_CACTVS_SUBSKEYS>
AAADccBwAAAAAAAAAAAAAAAAAAAAAQAAAAAwQAAAAAAAAEABAAAAGAAAAAAADACAGAAwAIAAAACAAiBCAAACAAAgAAAIiAAAAIgIICKAERCAIAAggAAIiAcAgMAOgAAAAAAQAAAAAAAAACAAAAAAAAAAAA==

> <PUBCHEM_IUPAC_OPENEYE_NAME>
4,9-dihydro-1H-fluorene

> <PUBCHEM_IUPAC_CAS_NAME>
4,9-dihydro-1H-fluorene

> <PUBCHEM_IUPAC_NAME_MARKUP>
4,9-dihydro-1<I>H</I>-fluorene

> <PUBCHEM_IUPAC_NAME>
4,9-dihydro-1H-fluorene

> <PUBCHEM_IUPAC_SYSTEMATIC_NAME>
4,9-dihydro-1H-fluorene

> <PUBCHEM_IUPAC_TRADITIONAL_NAME>
4,9-dihydro-1H-fluorene

> <PUBCHEM_IUPAC_INCHI>
InChI=1S/C13H12/c1-3-7-12-10(5-1)9-11-6-2-4-8-13(11)12/h1-5,7H,6,8-9H2

> <PUBCHEM_IUPAC_INCHIKEY>
RNHYLYLCDJYTBU-UHFFFAOYSA-N

> <PUBCHEM_XLOGP3_AA>
2.9

> <PUBCHEM_EXACT_MASS>
168.093900383

> <PUBCHEM_MOLECULAR_FORMULA>
C13H12

> <PUBCHEM_MOLECULAR_WEIGHT>
168.23

> <PUBCHEM_SMILES>
C1C=CCC2=C1CC3=CC=CC=C23

> <PUBCHEM_CONNECTIVITY_SMILES>
C1C=CCC2=C1CC3=CC=CC=C23

> <PUBCHEM_CACTVS_TPSA>
0

> <PUBCHEM_MONOISOTOPIC_WEIGHT>
168.093900383

> <PUBCHEM_TOTAL_CHARGE>
0

> <PUBCHEM_HEAVY_ATOM_COUNT>
13

> <PUBCHEM_ATOM_DEF_STEREO_COUNT>
0

> <PUBCHEM_ATOM_UDEF_STEREO_COUNT>
0

> <PUBCHEM_BOND_DEF_STEREO_COUNT>
0

> <PUBCHEM_BOND_UDEF_STEREO_COUNT>
0

> <PUBCHEM_ISOTOPIC_ATOM_COUNT>
0

> <PUBCHEM_COMPONENT_COUNT>
1

> <PUBCHEM_CACTVS_TAUTO_COUNT>
-1

> <PUBCHEM_COORDINATE_TYPE>
1
5
255

> <PUBCHEM_BONDANNOTATIONS>
10  12  8
11  13  8
12  13  8
4  10  8
4  5  8
5  11  8

$$$$
