597793
  -OEChem-05122608302D

 24 25  0     0  0  0  0  0  0999 V2000
    4.6783    0.6708    0.0000 S   0  0  0  0  0  0  0  0  0  0  0  0
    2.8660    1.8660    0.0000 O   0  0  0  0  0  0  0  0  0  0  0  0
    6.2619   -1.8660    0.0000 O   0  0  0  0  0  0  0  0  0  0  0  0
    4.6783   -0.9387    0.0000 N   0  0  0  0  0  0  0  0  0  0  0  0
    6.2619   -0.1340    0.0000 N   0  0  0  0  0  0  0  0  0  0  0  0
    2.0000   -0.6340    0.0000 C   0  0  0  0  0  0  0  0  0  0  0  0
    2.8660   -1.1340    0.0000 C   0  0  0  0  0  0  0  0  0  0  0  0
    2.0000    0.3660    0.0000 C   0  0  0  0  0  0  0  0  0  0  0  0
    3.7320   -0.6340    0.0000 C   0  0  0  0  0  0  0  0  0  0  0  0
    3.7320    0.3660    0.0000 C   0  0  0  0  0  0  0  0  0  0  0  0
    2.8660    0.8660    0.0000 C   0  0  0  0  0  0  0  0  0  0  0  0
    5.2619   -0.1340    0.0000 C   0  0  0  0  0  0  0  0  0  0  0  0
    6.7619   -1.0000    0.0000 C   0  0  0  0  0  0  0  0  0  0  0  0
    7.7619   -1.0000    0.0000 C   0  0  0  0  0  0  0  0  0  0  0  0
    1.3894   -0.5263    0.0000 H   0  0  0  0  0  0  0  0  0  0  0  0
    1.7880   -1.2166    0.0000 H   0  0  0  0  0  0  0  0  0  0  0  0
    2.4675   -1.6089    0.0000 H   0  0  0  0  0  0  0  0  0  0  0  0
    3.2646   -1.6089    0.0000 H   0  0  0  0  0  0  0  0  0  0  0  0
    1.7880    0.9486    0.0000 H   0  0  0  0  0  0  0  0  0  0  0  0
    1.3894    0.2584    0.0000 H   0  0  0  0  0  0  0  0  0  0  0  0
    6.5719    0.4030    0.0000 H   0  0  0  0  0  0  0  0  0  0  0  0
    7.7619   -1.6200    0.0000 H   0  0  0  0  0  0  0  0  0  0  0  0
    8.3819   -1.0000    0.0000 H   0  0  0  0  0  0  0  0  0  0  0  0
    7.7619   -0.3800    0.0000 H   0  0  0  0  0  0  0  0  0  0  0  0
  1 10  1  0  0  0  0
  1 12  1  0  0  0  0
  2 11  2  0  0  0  0
  3 13  2  0  0  0  0
  4  9  1  0  0  0  0
  4 12  2  0  0  0  0
  5 12  1  0  0  0  0
  5 13  1  0  0  0  0
  5 21  1  0  0  0  0
  6  7  1  0  0  0  0
  6  8  1  0  0  0  0
  6 15  1  0  0  0  0
  6 16  1  0  0  0  0
  7  9  1  0  0  0  0
  7 17  1  0  0  0  0
  7 18  1  0  0  0  0
  8 11  1  0  0  0  0
  8 19  1  0  0  0  0
  8 20  1  0  0  0  0
  9 10  2  0  0  0  0
 10 11  1  0  0  0  0
 13 14  1  0  0  0  0
 14 22  1  0  0  0  0
 14 23  1  0  0  0  0
 14 24  1  0  0  0  0
M  END
> <PUBCHEM_COMPOUND_CID>
597793

> <PUBCHEM_COMPOUND_CANONICALIZED>
1

> <PUBCHEM_CACTVS_COMPLEXITY>
270

> <PUBCHEM_CACTVS_HBOND_ACCEPTOR>
4

> <PUBCHEM_CACTVS_HBOND_DONOR>
1

> <PUBCHEM_CACTVS_ROTATABLE_BOND>
1

> <PUBCHEM_CACTVS_SUBSKEYS>
AAADccBzMABAAAAAAAAAAAAAAAAAAWAAAAAwAAAAAAAAAFgBgAAAHgQQAAAACAyB1gADkRLIEAisAYVwdAAA8KllCDkBGBUwQEiAIBpgmACEAYAokQJISWMYCQAQAAAAAAAAAAAAAAAAAAACAAAAAAAAAA==

> <PUBCHEM_IUPAC_OPENEYE_NAME>
N-(7-oxo-5,6-dihydro-4H-1,3-benzothiazol-2-yl)acetamide

> <PUBCHEM_IUPAC_CAS_NAME>
N-(7-oxo-5,6-dihydro-4H-1,3-benzothiazol-2-yl)acetamide

> <PUBCHEM_IUPAC_NAME_MARKUP>
<I>N</I>-(7-oxo-5,6-dihydro-4<I>H</I>-1,3-benzothiazol-2-yl)acetamide

> <PUBCHEM_IUPAC_NAME>
N-(7-oxo-5,6-dihydro-4H-1,3-benzothiazol-2-yl)acetamide

> <PUBCHEM_IUPAC_SYSTEMATIC_NAME>
N-(7-oxidanylidene-5,6-dihydro-4H-1,3-benzothiazol-2-yl)ethanamide

> <PUBCHEM_IUPAC_TRADITIONAL_NAME>
N-(7-keto-5,6-dihydro-4H-1,3-benzothiazol-2-yl)acetamide

> <PUBCHEM_IUPAC_INCHI>
InChI=1S/C9H10N2O2S/c1-5(12)10-9-11-6-3-2-4-7(13)8(6)14-9/h2-4H2,1H3,(H,10,11,12)

> <PUBCHEM_IUPAC_INCHIKEY>
VXXUKWLHWFFUNS-UHFFFAOYSA-N

> <PUBCHEM_XLOGP3_AA>
0.9

> <PUBCHEM_EXACT_MASS>
210.04629874

> <PUBCHEM_MOLECULAR_FORMULA>
C9H10N2O2S

> <PUBCHEM_MOLECULAR_WEIGHT>
210.26

> <PUBCHEM_SMILES>
CC(=O)NC1=NC2=C(S1)C(=O)CCC2

> <PUBCHEM_CONNECTIVITY_SMILES>
CC(=O)NC1=NC2=C(S1)C(=O)CCC2

> <PUBCHEM_CACTVS_TPSA>
87.3

> <PUBCHEM_MONOISOTOPIC_WEIGHT>
210.04629874

> <PUBCHEM_TOTAL_CHARGE>
0

> <PUBCHEM_HEAVY_ATOM_COUNT>
14

> <PUBCHEM_ATOM_DEF_STEREO_COUNT>
0

> <PUBCHEM_ATOM_UDEF_STEREO_COUNT>
0

> <PUBCHEM_BOND_DEF_STEREO_COUNT>
0

> <PUBCHEM_BOND_UDEF_STEREO_COUNT>
0

> <PUBCHEM_ISOTOPIC_ATOM_COUNT>
0

> <PUBCHEM_COMPONENT_COUNT>
1

> <PUBCHEM_CACTVS_TAUTO_COUNT>
-1

> <PUBCHEM_COORDINATE_TYPE>
1
5
255

> <PUBCHEM_BONDANNOTATIONS>
1  10  8
1  12  8
4  12  8
4  9  8
9  10  8

$$$$
