59806114
  -OEChem-05122608462D

 44 46  0     0  0  0  0  0  0999 V2000
    8.0856   -1.7410    0.0000 O   0  0  0  0  0  0  0  0  0  0  0  0
    5.4875   -2.2410    0.0000 O   0  0  0  0  0  0  0  0  0  0  0  0
    5.4875    2.7590    0.0000 O   0  0  0  0  0  0  0  0  0  0  0  0
    3.7555    0.7590    0.0000 O   0  0  0  0  0  0  0  0  0  0  0  0
    8.9516   -0.2410    0.0000 O   0  0  0  0  0  0  0  0  0  0  0  0
    5.2643   -0.9749    0.0000 O   0  0  0  0  0  0  0  0  0  0  0  0
    7.2196    2.7590    0.0000 O   0  0  0  0  0  0  0  0  0  0  0  0
    4.7403   -0.0673    0.0000 O   0  0  0  0  0  0  0  0  0  0  0  0
    7.2196   -0.2410    0.0000 C   0  0  0  0  0  0  0  0  0  0  0  0
    3.7555   -2.2410    0.0000 C   0  0  0  0  0  0  0  0  0  0  0  0
    6.3536    1.2590    0.0000 C   0  0  0  0  0  0  0  0  0  0  0  0
    2.8895   -0.7410    0.0000 C   0  0  0  0  0  0  0  0  0  0  0  0
    6.3536    0.2590    0.0000 C   0  0  0  0  0  0  0  0  0  0  0  0
    2.8895   -1.7410    0.0000 C   0  0  0  0  0  0  0  0  0  0  0  0
    7.2196   -2.2410    0.0000 C   0  0  0  0  0  0  0  0  0  0  0  0
    6.3536   -1.7410    0.0000 C   0  0  0  0  0  0  0  0  0  0  0  0
    4.6215    2.2590    0.0000 C   0  0  0  0  0  0  0  0  0  0  0  0
    4.6215    1.2590    0.0000 C   0  0  0  0  0  0  0  0  0  0  0  0
    8.0856    0.2590    0.0000 C   0  0  0  0  0  0  0  0  0  0  0  0
    2.8817   -2.7590    0.0000 C   0  0  0  0  0  0  0  0  0  0  0  0
    7.2196    1.7590    0.0000 C   0  0  0  0  0  0  0  0  0  0  0  0
    2.0039   -1.2387    0.0000 C   0  0  0  0  0  0  0  0  0  0  0  0
    8.0856   -0.7410    0.0000 C   0  0  0  0  0  0  0  0  0  0  0  0
    4.6215   -1.7410    0.0000 C   0  0  0  0  0  0  0  0  0  0  0  0
    6.3536    2.2590    0.0000 C   0  0  0  0  0  0  0  0  0  0  0  0
    3.7555   -0.2410    0.0000 C   0  0  0  0  0  0  0  0  0  0  0  0
    8.0856    1.2590    0.0000 C   0  0  0  0  0  0  0  0  0  0  0  0
    2.0000   -2.2545    0.0000 C   0  0  0  0  0  0  0  0  0  0  0  0
    5.8166   -0.0510    0.0000 H   0  0  0  0  0  0  0  0  0  0  0  0
    2.3525   -2.0510    0.0000 H   0  0  0  0  0  0  0  0  0  0  0  0
    6.8211   -2.7159    0.0000 H   0  0  0  0  0  0  0  0  0  0  0  0
    7.6181   -2.7159    0.0000 H   0  0  0  0  0  0  0  0  0  0  0  0
    6.7521   -1.2660    0.0000 H   0  0  0  0  0  0  0  0  0  0  0  0
    5.9550   -1.2660    0.0000 H   0  0  0  0  0  0  0  0  0  0  0  0
    4.4095    2.8416    0.0000 H   0  0  0  0  0  0  0  0  0  0  0  0
    4.0109    2.1514    0.0000 H   0  0  0  0  0  0  0  0  0  0  0  0
    4.8336    0.6764    0.0000 H   0  0  0  0  0  0  0  0  0  0  0  0
    5.2321    1.3667    0.0000 H   0  0  0  0  0  0  0  0  0  0  0  0
    8.6226   -0.0510    0.0000 H   0  0  0  0  0  0  0  0  0  0  0  0
    2.8865   -3.3790    0.0000 H   0  0  0  0  0  0  0  0  0  0  0  0
    7.2196    2.3790    0.0000 H   0  0  0  0  0  0  0  0  0  0  0  0
    1.4694   -0.9246    0.0000 H   0  0  0  0  0  0  0  0  0  0  0  0
    8.6226    1.5690    0.0000 H   0  0  0  0  0  0  0  0  0  0  0  0
    1.4631   -2.5645    0.0000 H   0  0  0  0  0  0  0  0  0  0  0  0
  1 15  1  0  0  0  0
  1 23  1  0  0  0  0
  2 16  1  0  0  0  0
  2 24  1  0  0  0  0
  3 17  1  0  0  0  0
  3 25  1  0  0  0  0
  4 18  1  0  0  0  0
  4 26  1  0  0  0  0
  5 23  2  0  0  0  0
  6 24  2  0  0  0  0
  7 25  2  0  0  0  0
  8 26  2  0  0  0  0
  9 13  2  0  0  0  0
  9 19  1  0  0  0  0
  9 23  1  0  0  0  0
 10 14  2  0  0  0  0
 10 20  1  0  0  0  0
 10 24  1  0  0  0  0
 11 13  1  0  0  0  0
 11 21  2  0  0  0  0
 11 25  1  0  0  0  0
 12 14  1  0  0  0  0
 12 22  2  0  0  0  0
 12 26  1  0  0  0  0
 13 29  1  0  0  0  0
 14 30  1  0  0  0  0
 15 16  1  0  0  0  0
 15 31  1  0  0  0  0
 15 32  1  0  0  0  0
 16 33  1  0  0  0  0
 16 34  1  0  0  0  0
 17 18  1  0  0  0  0
 17 35  1  0  0  0  0
 17 36  1  0  0  0  0
 18 37  1  0  0  0  0
 18 38  1  0  0  0  0
 19 27  2  0  0  0  0
 19 39  1  0  0  0  0
 20 28  2  0  0  0  0
 20 40  1  0  0  0  0
 21 27  1  0  0  0  0
 21 41  1  0  0  0  0
 22 28  1  0  0  0  0
 22 42  1  0  0  0  0
 27 43  1  0  0  0  0
 28 44  1  0  0  0  0
M  END
> <PUBCHEM_COMPOUND_CID>
59806114

> <PUBCHEM_COMPOUND_CANONICALIZED>
1

> <PUBCHEM_CACTVS_COMPLEXITY>
501

> <PUBCHEM_CACTVS_HBOND_ACCEPTOR>
8

> <PUBCHEM_CACTVS_HBOND_DONOR>
0

> <PUBCHEM_CACTVS_ROTATABLE_BOND>
0

> <PUBCHEM_CACTVS_SUBSKEYS>
AAADceB4PAAAAAAAAAAAAAAAAAAAAAAAAAAwYAAAAAAAAAABQAAAGgAAAAAADACgmAIwCIAABACIAiDSCAACAAAkAAAIiAEACMgJJjKANRiCMQAkwAEKqYeI7miOAAACAAAAAAAAAAQAAAAAAAAAAAAAAA==

> <PUBCHEM_IUPAC_OPENEYE_NAME>
3,6,14,17-tetraoxatricyclo[17.3.1.18,12]tetracosa-1(23),8(24),9,11,19,21-hexaene-2,7,13,18-tetrone

> <PUBCHEM_IUPAC_CAS_NAME>
3,6,14,17-tetraoxatricyclo[17.3.1.18,12]tetracosa-1(23),8(24),9,11,19,21-hexaene-2,7,13,18-tetrone

> <PUBCHEM_IUPAC_NAME_MARKUP>
3,6,14,17-tetraoxatricyclo[17.3.1.1<SUP>8,12</SUP>]tetracosa-1(23),8(24),9,11,19,21-hexaene-2,7,13,18-tetrone

> <PUBCHEM_IUPAC_NAME>
3,6,14,17-tetraoxatricyclo[17.3.1.18,12]tetracosa-1(23),8(24),9,11,19,21-hexaene-2,7,13,18-tetrone

> <PUBCHEM_IUPAC_SYSTEMATIC_NAME>
3,6,14,17-tetraoxatricyclo[17.3.1.18,12]tetracosa-1(23),8(24),9,11,19,21-hexaene-2,7,13,18-tetrone

> <PUBCHEM_IUPAC_TRADITIONAL_NAME>
3,6,14,17-tetraoxatricyclo[17.3.1.18,12]tetracosa-1(23),8(24),9,11,19,21-hexaene-2,7,13,18-diquinone

> <PUBCHEM_IUPAC_INCHI>
InChI=1S/C20H16O8/c21-17-13-3-1-4-14(11-13)18(22)26-8-10-28-20(24)16-6-2-5-15(12-16)19(23)27-9-7-25-17/h1-6,11-12H,7-10H2

> <PUBCHEM_IUPAC_INCHIKEY>
SNTPDJUTDOEXDZ-UHFFFAOYSA-N

> <PUBCHEM_XLOGP3_AA>
2.8

> <PUBCHEM_EXACT_MASS>
384.08451746

> <PUBCHEM_MOLECULAR_FORMULA>
C20H16O8

> <PUBCHEM_MOLECULAR_WEIGHT>
384.3

> <PUBCHEM_SMILES>
C1COC(=O)C2=CC(=CC=C2)C(=O)OCCOC(=O)C3=CC=CC(=C3)C(=O)O1

> <PUBCHEM_CONNECTIVITY_SMILES>
C1COC(=O)C2=CC(=CC=C2)C(=O)OCCOC(=O)C3=CC=CC(=C3)C(=O)O1

> <PUBCHEM_CACTVS_TPSA>
105

> <PUBCHEM_MONOISOTOPIC_WEIGHT>
384.08451746

> <PUBCHEM_TOTAL_CHARGE>
0

> <PUBCHEM_HEAVY_ATOM_COUNT>
28

> <PUBCHEM_ATOM_DEF_STEREO_COUNT>
0

> <PUBCHEM_ATOM_UDEF_STEREO_COUNT>
0

> <PUBCHEM_BOND_DEF_STEREO_COUNT>
0

> <PUBCHEM_BOND_UDEF_STEREO_COUNT>
0

> <PUBCHEM_ISOTOPIC_ATOM_COUNT>
0

> <PUBCHEM_COMPONENT_COUNT>
1

> <PUBCHEM_CACTVS_TAUTO_COUNT>
-1

> <PUBCHEM_COORDINATE_TYPE>
1
5
255

> <PUBCHEM_BONDANNOTATIONS>
10  14  8
10  20  8
11  13  8
11  21  8
12  14  8
12  22  8
19  27  8
20  28  8
21  27  8
22  28  8
9  13  8
9  19  8

$$$$
