599023
  -OEChem-05122609342D

 25 26  0     0  0  0  0  0  0999 V2000
    2.0000    1.0094    0.0000 O   0  0  0  0  0  0  0  0  0  0  0  0
    4.2601    2.2694    0.0000 C   0  0  0  0  0  0  0  0  0  0  0  0
    4.5691    1.3184    0.0000 C   0  0  0  0  0  0  0  0  0  0  0  0
    3.2601    2.2694    0.0000 C   0  0  0  0  0  0  0  0  0  0  0  0
    3.7601    0.7306    0.0000 C   0  0  0  0  0  0  0  0  0  0  0  0
    2.9511    1.3184    0.0000 C   0  0  0  0  0  0  0  0  0  0  0  0
    3.7601   -0.2694    0.0000 C   0  0  0  0  0  0  0  0  0  0  0  0
    5.5202    1.0094    0.0000 C   0  0  0  0  0  0  0  0  0  0  0  0
    2.8941   -0.7694    0.0000 C   0  0  0  0  0  0  0  0  0  0  0  0
    4.6261   -0.7694    0.0000 C   0  0  0  0  0  0  0  0  0  0  0  0
    2.8941   -1.7694    0.0000 C   0  0  0  0  0  0  0  0  0  0  0  0
    4.6261   -1.7694    0.0000 C   0  0  0  0  0  0  0  0  0  0  0  0
    3.7601   -2.2694    0.0000 C   0  0  0  0  0  0  0  0  0  0  0  0
    4.8665    2.3983    0.0000 H   0  0  0  0  0  0  0  0  0  0  0  0
    4.1953    2.8860    0.0000 H   0  0  0  0  0  0  0  0  0  0  0  0
    3.3249    2.8860    0.0000 H   0  0  0  0  0  0  0  0  0  0  0  0
    2.6536    2.3983    0.0000 H   0  0  0  0  0  0  0  0  0  0  0  0
    5.3286    0.4197    0.0000 H   0  0  0  0  0  0  0  0  0  0  0  0
    6.1098    0.8178    0.0000 H   0  0  0  0  0  0  0  0  0  0  0  0
    5.7117    1.5990    0.0000 H   0  0  0  0  0  0  0  0  0  0  0  0
    2.3571   -0.4594    0.0000 H   0  0  0  0  0  0  0  0  0  0  0  0
    5.1630   -0.4594    0.0000 H   0  0  0  0  0  0  0  0  0  0  0  0
    2.3571   -2.0794    0.0000 H   0  0  0  0  0  0  0  0  0  0  0  0
    5.1630   -2.0794    0.0000 H   0  0  0  0  0  0  0  0  0  0  0  0
    3.7601   -2.8894    0.0000 H   0  0  0  0  0  0  0  0  0  0  0  0
  1  6  2  0  0  0  0
  2  3  1  0  0  0  0
  2  4  1  0  0  0  0
  2 14  1  0  0  0  0
  2 15  1  0  0  0  0
  3  5  2  0  0  0  0
  3  8  1  0  0  0  0
  4  6  1  0  0  0  0
  4 16  1  0  0  0  0
  4 17  1  0  0  0  0
  5  6  1  0  0  0  0
  5  7  1  0  0  0  0
  7  9  2  0  0  0  0
  7 10  1  0  0  0  0
  8 18  1  0  0  0  0
  8 19  1  0  0  0  0
  8 20  1  0  0  0  0
  9 11  1  0  0  0  0
  9 21  1  0  0  0  0
 10 12  2  0  0  0  0
 10 22  1  0  0  0  0
 11 13  2  0  0  0  0
 11 23  1  0  0  0  0
 12 13  1  0  0  0  0
 12 24  1  0  0  0  0
 13 25  1  0  0  0  0
M  END
> <PUBCHEM_COMPOUND_CID>
599023

> <PUBCHEM_COMPOUND_CANONICALIZED>
1

> <PUBCHEM_CACTVS_COMPLEXITY>
244

> <PUBCHEM_CACTVS_HBOND_ACCEPTOR>
1

> <PUBCHEM_CACTVS_HBOND_DONOR>
0

> <PUBCHEM_CACTVS_ROTATABLE_BOND>
1

> <PUBCHEM_CACTVS_SUBSKEYS>
AAADccBwIAAAAAAAAAAAAAAAAAAAAQAAAAAwAAAAAAAAAAABAAAAGgAAAAAADASAmAAyAIAAAACIAqBSAAACAAAgAAAIiAEAAMgIIDKAFRCAIAAggAAIiQcIiMCOAAAAAAAAAAAAAAAAAAAAAAAAAAAAAA==

> <PUBCHEM_IUPAC_OPENEYE_NAME>
3-methyl-2-phenyl-cyclopent-2-en-1-one

> <PUBCHEM_IUPAC_CAS_NAME>
3-methyl-2-phenyl-1-cyclopent-2-enone

> <PUBCHEM_IUPAC_NAME_MARKUP>
3-methyl-2-phenylcyclopent-2-en-1-one

> <PUBCHEM_IUPAC_NAME>
3-methyl-2-phenylcyclopent-2-en-1-one

> <PUBCHEM_IUPAC_SYSTEMATIC_NAME>
3-methyl-2-phenyl-cyclopent-2-en-1-one

> <PUBCHEM_IUPAC_TRADITIONAL_NAME>
3-methyl-2-phenyl-cyclopent-2-en-1-one

> <PUBCHEM_IUPAC_INCHI>
InChI=1S/C12H12O/c1-9-7-8-11(13)12(9)10-5-3-2-4-6-10/h2-6H,7-8H2,1H3

> <PUBCHEM_IUPAC_INCHIKEY>
OKIYRMQBCLCTCE-UHFFFAOYSA-N

> <PUBCHEM_XLOGP3_AA>
2.1

> <PUBCHEM_EXACT_MASS>
172.088815002

> <PUBCHEM_MOLECULAR_FORMULA>
C12H12O

> <PUBCHEM_MOLECULAR_WEIGHT>
172.22

> <PUBCHEM_SMILES>
CC1=C(C(=O)CC1)C2=CC=CC=C2

> <PUBCHEM_CONNECTIVITY_SMILES>
CC1=C(C(=O)CC1)C2=CC=CC=C2

> <PUBCHEM_CACTVS_TPSA>
17.1

> <PUBCHEM_MONOISOTOPIC_WEIGHT>
172.088815002

> <PUBCHEM_TOTAL_CHARGE>
0

> <PUBCHEM_HEAVY_ATOM_COUNT>
13

> <PUBCHEM_ATOM_DEF_STEREO_COUNT>
0

> <PUBCHEM_ATOM_UDEF_STEREO_COUNT>
0

> <PUBCHEM_BOND_DEF_STEREO_COUNT>
0

> <PUBCHEM_BOND_UDEF_STEREO_COUNT>
0

> <PUBCHEM_ISOTOPIC_ATOM_COUNT>
0

> <PUBCHEM_COMPONENT_COUNT>
1

> <PUBCHEM_CACTVS_TAUTO_COUNT>
-1

> <PUBCHEM_COORDINATE_TYPE>
1
5
255

> <PUBCHEM_BONDANNOTATIONS>
10  12  8
11  13  8
12  13  8
7  10  8
7  9  8
9  11  8

$$$$
