600373
  -OEChem-05122609422D

 28 29  0     0  0  0  0  0  0999 V2000
    3.7601   -1.3140    0.0000 O   0  0  0  0  0  0  0  0  0  0  0  0
    6.1588    0.6285    0.0000 O   0  0  0  0  0  0  0  0  0  0  0  0
    5.5202   -1.0352    0.0000 C   0  0  0  0  0  0  0  0  0  0  0  0
    4.5691   -0.7262    0.0000 C   0  0  0  0  0  0  0  0  0  0  0  0
    6.2633   -0.3661    0.0000 C   0  0  0  0  0  0  0  0  0  0  0  0
    5.7281   -2.0133    0.0000 C   0  0  0  0  0  0  0  0  0  0  0  0
    4.2601    0.2249    0.0000 C   0  0  0  0  0  0  0  0  0  0  0  0
    7.2414   -0.5740    0.0000 C   0  0  0  0  0  0  0  0  0  0  0  0
    2.9511   -0.7262    0.0000 C   0  0  0  0  0  0  0  0  0  0  0  0
    7.0723    1.0352    0.0000 C   0  0  0  0  0  0  0  0  0  0  0  0
    3.2601    0.2249    0.0000 C   0  0  0  0  0  0  0  0  0  0  0  0
    7.7414    0.2920    0.0000 C   0  0  0  0  0  0  0  0  0  0  0  0
    2.0000   -1.0352    0.0000 C   0  0  0  0  0  0  0  0  0  0  0  0
    7.2802    2.0133    0.0000 C   0  0  0  0  0  0  0  0  0  0  0  0
    5.0594   -1.4501    0.0000 H   0  0  0  0  0  0  0  0  0  0  0  0
    5.1216   -2.1423    0.0000 H   0  0  0  0  0  0  0  0  0  0  0  0
    5.8570   -2.6198    0.0000 H   0  0  0  0  0  0  0  0  0  0  0  0
    6.3345   -1.8844    0.0000 H   0  0  0  0  0  0  0  0  0  0  0  0
    4.6245    0.7265    0.0000 H   0  0  0  0  0  0  0  0  0  0  0  0
    7.4936   -1.1404    0.0000 H   0  0  0  0  0  0  0  0  0  0  0  0
    2.8956    0.7265    0.0000 H   0  0  0  0  0  0  0  0  0  0  0  0
    8.3580    0.3569    0.0000 H   0  0  0  0  0  0  0  0  0  0  0  0
    1.8084   -0.4455    0.0000 H   0  0  0  0  0  0  0  0  0  0  0  0
    1.4103   -1.2268    0.0000 H   0  0  0  0  0  0  0  0  0  0  0  0
    2.1916   -1.6248    0.0000 H   0  0  0  0  0  0  0  0  0  0  0  0
    7.8867    1.8844    0.0000 H   0  0  0  0  0  0  0  0  0  0  0  0
    7.4091    2.6198    0.0000 H   0  0  0  0  0  0  0  0  0  0  0  0
    6.6738    2.1423    0.0000 H   0  0  0  0  0  0  0  0  0  0  0  0
  1  4  1  0  0  0  0
  1  9  1  0  0  0  0
  2  5  1  0  0  0  0
  2 10  1  0  0  0  0
  3  4  1  0  0  0  0
  3  5  1  0  0  0  0
  3  6  1  0  0  0  0
  3 15  1  0  0  0  0
  4  7  2  0  0  0  0
  5  8  2  0  0  0  0
  6 16  1  0  0  0  0
  6 17  1  0  0  0  0
  6 18  1  0  0  0  0
  7 11  1  0  0  0  0
  7 19  1  0  0  0  0
  8 12  1  0  0  0  0
  8 20  1  0  0  0  0
  9 11  2  0  0  0  0
  9 13  1  0  0  0  0
 10 12  2  0  0  0  0
 10 14  1  0  0  0  0
 11 21  1  0  0  0  0
 12 22  1  0  0  0  0
 13 23  1  0  0  0  0
 13 24  1  0  0  0  0
 13 25  1  0  0  0  0
 14 26  1  0  0  0  0
 14 27  1  0  0  0  0
 14 28  1  0  0  0  0
M  END
> <PUBCHEM_COMPOUND_CID>
600373

> <PUBCHEM_COMPOUND_CANONICALIZED>
1

> <PUBCHEM_CACTVS_COMPLEXITY>
173

> <PUBCHEM_CACTVS_HBOND_ACCEPTOR>
2

> <PUBCHEM_CACTVS_HBOND_DONOR>
0

> <PUBCHEM_CACTVS_ROTATABLE_BOND>
2

> <PUBCHEM_CACTVS_SUBSKEYS>
AAADccBwMAAAAAAAAAAAAAAAAAAAASJAAAAAAAAAAAAAAAAB4AAAGgAAAAAADQSAkAAyBIAABECIAKBSAAACCAAkIAAIiAEGCMgMJjaMNRqCOSCl4BEIqYeIyPCOAAAAAAAAAAAAAAAAAAAAAAAAAAAAAA==

> <PUBCHEM_IUPAC_OPENEYE_NAME>
2-methyl-5-[1-(5-methyl-2-furyl)ethyl]furan

> <PUBCHEM_IUPAC_CAS_NAME>
2-methyl-5-[1-(5-methyl-2-furanyl)ethyl]furan

> <PUBCHEM_IUPAC_NAME_MARKUP>
2-methyl-5-[1-(5-methylfuran-2-yl)ethyl]furan

> <PUBCHEM_IUPAC_NAME>
2-methyl-5-[1-(5-methylfuran-2-yl)ethyl]furan

> <PUBCHEM_IUPAC_SYSTEMATIC_NAME>
2-methyl-5-[1-(5-methylfuran-2-yl)ethyl]furan

> <PUBCHEM_IUPAC_TRADITIONAL_NAME>
2-methyl-5-[1-(5-methyl-2-furyl)ethyl]furan

> <PUBCHEM_IUPAC_INCHI>
InChI=1S/C12H14O2/c1-8-4-6-11(13-8)10(3)12-7-5-9(2)14-12/h4-7,10H,1-3H3

> <PUBCHEM_IUPAC_INCHIKEY>
RGYDDEPEONUGQN-UHFFFAOYSA-N

> <PUBCHEM_XLOGP3_AA>
3.2

> <PUBCHEM_EXACT_MASS>
190.099379685

> <PUBCHEM_MOLECULAR_FORMULA>
C12H14O2

> <PUBCHEM_MOLECULAR_WEIGHT>
190.24

> <PUBCHEM_SMILES>
CC1=CC=C(O1)C(C)C2=CC=C(O2)C

> <PUBCHEM_CONNECTIVITY_SMILES>
CC1=CC=C(O1)C(C)C2=CC=C(O2)C

> <PUBCHEM_CACTVS_TPSA>
26.3

> <PUBCHEM_MONOISOTOPIC_WEIGHT>
190.099379685

> <PUBCHEM_TOTAL_CHARGE>
0

> <PUBCHEM_HEAVY_ATOM_COUNT>
14

> <PUBCHEM_ATOM_DEF_STEREO_COUNT>
0

> <PUBCHEM_ATOM_UDEF_STEREO_COUNT>
0

> <PUBCHEM_BOND_DEF_STEREO_COUNT>
0

> <PUBCHEM_BOND_UDEF_STEREO_COUNT>
0

> <PUBCHEM_ISOTOPIC_ATOM_COUNT>
0

> <PUBCHEM_COMPONENT_COUNT>
1

> <PUBCHEM_CACTVS_TAUTO_COUNT>
-1

> <PUBCHEM_COORDINATE_TYPE>
1
5
255

> <PUBCHEM_BONDANNOTATIONS>
1  4  8
1  9  8
10  12  8
2  10  8
2  5  8
4  7  8
5  8  8
7  11  8
8  12  8
9  11  8

$$$$
