605777
  -OEChem-05122608202D

 52 52  0     0  0  0  0  0  0999 V2000
    7.7331    0.4330    0.0000 O   0  0  0  0  0  0  0  0  0  0  0  0
    6.8671   -1.0670    0.0000 O   0  0  0  0  0  0  0  0  0  0  0  0
    2.5369    0.4330    0.0000 O   0  0  0  0  0  0  0  0  0  0  0  0
    9.4651    1.4330    0.0000 C   0  0  0  0  0  0  0  0  0  0  0  0
   11.1972   -1.5670    0.0000 C   0  0  0  0  0  0  0  0  0  0  0  0
    9.4651    0.4330    0.0000 C   0  0  0  0  0  0  0  0  0  0  0  0
   10.3312   -1.0670    0.0000 C   0  0  0  0  0  0  0  0  0  0  0  0
   10.3312   -0.0670    0.0000 C   0  0  0  0  0  0  0  0  0  0  0  0
    8.5991   -0.0670    0.0000 C   0  0  0  0  0  0  0  0  0  0  0  0
    9.4651    2.4330    0.0000 C   0  0  0  0  0  0  0  0  0  0  0  0
   10.4651    1.4330    0.0000 C   0  0  0  0  0  0  0  0  0  0  0  0
    8.4651    1.4330    0.0000 C   0  0  0  0  0  0  0  0  0  0  0  0
   12.0632   -2.0670    0.0000 C   0  0  0  0  0  0  0  0  0  0  0  0
   10.6972   -2.4330    0.0000 C   0  0  0  0  0  0  0  0  0  0  0  0
   11.6972   -0.7010    0.0000 C   0  0  0  0  0  0  0  0  0  0  0  0
    9.4651   -1.5670    0.0000 C   0  0  0  0  0  0  0  0  0  0  0  0
    8.5991   -1.0670    0.0000 C   0  0  0  0  0  0  0  0  0  0  0  0
    6.0010    0.4330    0.0000 C   0  0  0  0  0  0  0  0  0  0  0  0
    6.8671   -0.0670    0.0000 C   0  0  0  0  0  0  0  0  0  0  0  0
    5.1350   -0.0670    0.0000 C   0  0  0  0  0  0  0  0  0  0  0  0
    4.2690    0.4330    0.0000 C   0  0  0  0  0  0  0  0  0  0  0  0
    3.4030   -0.0670    0.0000 C   0  0  0  0  0  0  0  0  0  0  0  0
   10.8681    0.2430    0.0000 H   0  0  0  0  0  0  0  0  0  0  0  0
   10.0851    2.4330    0.0000 H   0  0  0  0  0  0  0  0  0  0  0  0
    9.4651    3.0530    0.0000 H   0  0  0  0  0  0  0  0  0  0  0  0
    8.8451    2.4330    0.0000 H   0  0  0  0  0  0  0  0  0  0  0  0
   10.4651    0.8130    0.0000 H   0  0  0  0  0  0  0  0  0  0  0  0
   11.0851    1.4330    0.0000 H   0  0  0  0  0  0  0  0  0  0  0  0
   10.4651    2.0530    0.0000 H   0  0  0  0  0  0  0  0  0  0  0  0
    8.4651    2.0530    0.0000 H   0  0  0  0  0  0  0  0  0  0  0  0
    7.8451    1.4330    0.0000 H   0  0  0  0  0  0  0  0  0  0  0  0
    8.4651    0.8130    0.0000 H   0  0  0  0  0  0  0  0  0  0  0  0
   11.7532   -2.6039    0.0000 H   0  0  0  0  0  0  0  0  0  0  0  0
   12.6002   -2.3770    0.0000 H   0  0  0  0  0  0  0  0  0  0  0  0
   12.3732   -1.5300    0.0000 H   0  0  0  0  0  0  0  0  0  0  0  0
   10.1603   -2.1230    0.0000 H   0  0  0  0  0  0  0  0  0  0  0  0
   10.3872   -2.9700    0.0000 H   0  0  0  0  0  0  0  0  0  0  0  0
   11.2341   -2.7430    0.0000 H   0  0  0  0  0  0  0  0  0  0  0  0
   12.2341   -1.0110    0.0000 H   0  0  0  0  0  0  0  0  0  0  0  0
   12.0072   -0.1640    0.0000 H   0  0  0  0  0  0  0  0  0  0  0  0
   11.1603   -0.3910    0.0000 H   0  0  0  0  0  0  0  0  0  0  0  0
    9.4651   -2.1870    0.0000 H   0  0  0  0  0  0  0  0  0  0  0  0
    8.0622   -1.3770    0.0000 H   0  0  0  0  0  0  0  0  0  0  0  0
    6.3996    0.9080    0.0000 H   0  0  0  0  0  0  0  0  0  0  0  0
    5.6025    0.9080    0.0000 H   0  0  0  0  0  0  0  0  0  0  0  0
    4.7365   -0.5419    0.0000 H   0  0  0  0  0  0  0  0  0  0  0  0
    5.5335   -0.5419    0.0000 H   0  0  0  0  0  0  0  0  0  0  0  0
    4.6675    0.9080    0.0000 H   0  0  0  0  0  0  0  0  0  0  0  0
    3.8705    0.9080    0.0000 H   0  0  0  0  0  0  0  0  0  0  0  0
    3.0044   -0.5419    0.0000 H   0  0  0  0  0  0  0  0  0  0  0  0
    3.8015   -0.5419    0.0000 H   0  0  0  0  0  0  0  0  0  0  0  0
    2.0000    0.1230    0.0000 H   0  0  0  0  0  0  0  0  0  0  0  0
  1  9  1  0  0  0  0
  1 19  1  0  0  0  0
  2 19  2  0  0  0  0
  3 22  1  0  0  0  0
  3 52  1  0  0  0  0
  4  6  1  0  0  0  0
  4 10  1  0  0  0  0
  4 11  1  0  0  0  0
  4 12  1  0  0  0  0
  5  7  1  0  0  0  0
  5 13  1  0  0  0  0
  5 14  1  0  0  0  0
  5 15  1  0  0  0  0
  6  8  1  0  0  0  0
  6  9  2  0  0  0  0
  7  8  2  0  0  0  0
  7 16  1  0  0  0  0
  8 23  1  0  0  0  0
  9 17  1  0  0  0  0
 10 24  1  0  0  0  0
 10 25  1  0  0  0  0
 10 26  1  0  0  0  0
 11 27  1  0  0  0  0
 11 28  1  0  0  0  0
 11 29  1  0  0  0  0
 12 30  1  0  0  0  0
 12 31  1  0  0  0  0
 12 32  1  0  0  0  0
 13 33  1  0  0  0  0
 13 34  1  0  0  0  0
 13 35  1  0  0  0  0
 14 36  1  0  0  0  0
 14 37  1  0  0  0  0
 14 38  1  0  0  0  0
 15 39  1  0  0  0  0
 15 40  1  0  0  0  0
 15 41  1  0  0  0  0
 16 17  2  0  0  0  0
 16 42  1  0  0  0  0
 17 43  1  0  0  0  0
 18 19  1  0  0  0  0
 18 20  1  0  0  0  0
 18 44  1  0  0  0  0
 18 45  1  0  0  0  0
 20 21  1  0  0  0  0
 20 46  1  0  0  0  0
 20 47  1  0  0  0  0
 21 22  1  0  0  0  0
 21 48  1  0  0  0  0
 21 49  1  0  0  0  0
 22 50  1  0  0  0  0
 22 51  1  0  0  0  0
M  END
> <PUBCHEM_COMPOUND_CID>
605777

> <PUBCHEM_COMPOUND_CANONICALIZED>
1

> <PUBCHEM_CACTVS_COMPLEXITY>
349

> <PUBCHEM_CACTVS_HBOND_ACCEPTOR>
3

> <PUBCHEM_CACTVS_HBOND_DONOR>
1

> <PUBCHEM_CACTVS_ROTATABLE_BOND>
8

> <PUBCHEM_CACTVS_SUBSKEYS>
AAADceB4MAAAAAAAAAAAAAAAAAAAAAAAAAAwAAAAAAAAAAABAAAAGgAACAAADgSgmAIyDoAABgCIAiDSCAACCAAgIAAIiAEGCIgMNjKEMRqCeiCkwBEIqAeI5PgPoAACAAAIAABAAAQAABAAAAAAAAAAAA==

> <PUBCHEM_IUPAC_OPENEYE_NAME>
(2,4-ditert-butylphenyl) 5-hydroxypentanoate

> <PUBCHEM_IUPAC_CAS_NAME>
5-hydroxypentanoic acid (2,4-ditert-butylphenyl) ester

> <PUBCHEM_IUPAC_NAME_MARKUP>
(2,4-di<I>tert</I>-butylphenyl) 5-hydroxypentanoate

> <PUBCHEM_IUPAC_NAME>
(2,4-ditert-butylphenyl) 5-hydroxypentanoate

> <PUBCHEM_IUPAC_SYSTEMATIC_NAME>
(2,4-ditert-butylphenyl) 5-oxidanylpentanoate

> <PUBCHEM_IUPAC_TRADITIONAL_NAME>
5-hydroxyvaleric acid (2,4-ditert-butylphenyl) ester

> <PUBCHEM_IUPAC_INCHI>
InChI=1S/C19H30O3/c1-18(2,3)14-10-11-16(15(13-14)19(4,5)6)22-17(21)9-7-8-12-20/h10-11,13,20H,7-9,12H2,1-6H3

> <PUBCHEM_IUPAC_INCHIKEY>
ZUILXYOZKNAZSJ-UHFFFAOYSA-N

> <PUBCHEM_XLOGP3_AA>
5

> <PUBCHEM_EXACT_MASS>
306.21949481

> <PUBCHEM_MOLECULAR_FORMULA>
C19H30O3

> <PUBCHEM_MOLECULAR_WEIGHT>
306.4

> <PUBCHEM_SMILES>
CC(C)(C)C1=CC(=C(C=C1)OC(=O)CCCCO)C(C)(C)C

> <PUBCHEM_CONNECTIVITY_SMILES>
CC(C)(C)C1=CC(=C(C=C1)OC(=O)CCCCO)C(C)(C)C

> <PUBCHEM_CACTVS_TPSA>
46.5

> <PUBCHEM_MONOISOTOPIC_WEIGHT>
306.21949481

> <PUBCHEM_TOTAL_CHARGE>
0

> <PUBCHEM_HEAVY_ATOM_COUNT>
22

> <PUBCHEM_ATOM_DEF_STEREO_COUNT>
0

> <PUBCHEM_ATOM_UDEF_STEREO_COUNT>
0

> <PUBCHEM_BOND_DEF_STEREO_COUNT>
0

> <PUBCHEM_BOND_UDEF_STEREO_COUNT>
0

> <PUBCHEM_ISOTOPIC_ATOM_COUNT>
0

> <PUBCHEM_COMPONENT_COUNT>
1

> <PUBCHEM_CACTVS_TAUTO_COUNT>
-1

> <PUBCHEM_COORDINATE_TYPE>
1
5
255

> <PUBCHEM_BONDANNOTATIONS>
16  17  8
6  8  8
6  9  8
7  16  8
7  8  8
9  17  8

$$$$
