605776
  -OEChem-05122609032D

 45 46  0     0  0  0  0  0  0999 V2000
    5.5878   -0.8090    0.0000 O   0  0  0  0  0  0  0  0  0  0  0  0
    2.0000   -0.0000    0.0000 O   0  0  0  0  0  0  0  0  0  0  0  0
    5.0000    0.0000    0.0000 C   0  0  0  0  0  0  0  0  0  0  0  0
    5.5878    0.8090    0.0000 C   0  0  0  0  0  0  0  0  0  0  0  0
    3.5000   -0.8660    0.0000 C   0  0  0  0  0  0  0  0  0  0  0  0
    3.5000    0.8660    0.0000 C   0  0  0  0  0  0  0  0  0  0  0  0
    4.5000   -0.8660    0.0000 C   0  0  0  0  0  0  0  0  0  0  0  0
    4.5000    0.8660    0.0000 C   0  0  0  0  0  0  0  0  0  0  0  0
    3.0000   -1.7320    0.0000 C   0  0  0  0  0  0  0  0  0  0  0  0
    3.0000    1.7320    0.0000 C   0  0  0  0  0  0  0  0  0  0  0  0
    6.5388    0.5000    0.0000 C   0  0  0  0  0  0  0  0  0  0  0  0
    6.5388   -0.5000    0.0000 C   0  0  0  0  0  0  0  0  0  0  0  0
    3.0000    0.0000    0.0000 C   0  0  0  0  0  0  0  0  0  0  0  0
    2.5000   -2.5981    0.0000 C   0  0  0  0  0  0  0  0  0  0  0  0
    3.8660   -2.2320    0.0000 C   0  0  0  0  0  0  0  0  0  0  0  0
    2.1340   -1.2320    0.0000 C   0  0  0  0  0  0  0  0  0  0  0  0
    2.5000    2.5981    0.0000 C   0  0  0  0  0  0  0  0  0  0  0  0
    3.8660    2.2320    0.0000 C   0  0  0  0  0  0  0  0  0  0  0  0
    2.1340    1.2320    0.0000 C   0  0  0  0  0  0  0  0  0  0  0  0
    5.8400    1.3754    0.0000 H   0  0  0  0  0  0  0  0  0  0  0  0
    5.0508    1.1190    0.0000 H   0  0  0  0  0  0  0  0  0  0  0  0
    4.8100   -1.4030    0.0000 H   0  0  0  0  0  0  0  0  0  0  0  0
    4.8100    1.4030    0.0000 H   0  0  0  0  0  0  0  0  0  0  0  0
    7.1554    0.4352    0.0000 H   0  0  0  0  0  0  0  0  0  0  0  0
    6.6678    1.1064    0.0000 H   0  0  0  0  0  0  0  0  0  0  0  0
    6.6678   -1.1064    0.0000 H   0  0  0  0  0  0  0  0  0  0  0  0
    7.1554   -0.4352    0.0000 H   0  0  0  0  0  0  0  0  0  0  0  0
    1.9631   -2.2881    0.0000 H   0  0  0  0  0  0  0  0  0  0  0  0
    2.1900   -3.1350    0.0000 H   0  0  0  0  0  0  0  0  0  0  0  0
    3.0369   -2.9081    0.0000 H   0  0  0  0  0  0  0  0  0  0  0  0
    3.5560   -2.7690    0.0000 H   0  0  0  0  0  0  0  0  0  0  0  0
    4.4030   -2.5420    0.0000 H   0  0  0  0  0  0  0  0  0  0  0  0
    4.1760   -1.6951    0.0000 H   0  0  0  0  0  0  0  0  0  0  0  0
    2.4440   -0.6951    0.0000 H   0  0  0  0  0  0  0  0  0  0  0  0
    1.5970   -0.9221    0.0000 H   0  0  0  0  0  0  0  0  0  0  0  0
    1.8240   -1.7690    0.0000 H   0  0  0  0  0  0  0  0  0  0  0  0
    3.0369    2.9081    0.0000 H   0  0  0  0  0  0  0  0  0  0  0  0
    2.1900    3.1350    0.0000 H   0  0  0  0  0  0  0  0  0  0  0  0
    1.9631    2.2881    0.0000 H   0  0  0  0  0  0  0  0  0  0  0  0
    4.1760    1.6951    0.0000 H   0  0  0  0  0  0  0  0  0  0  0  0
    4.4030    2.5420    0.0000 H   0  0  0  0  0  0  0  0  0  0  0  0
    3.5560    2.7690    0.0000 H   0  0  0  0  0  0  0  0  0  0  0  0
    1.8240    1.7690    0.0000 H   0  0  0  0  0  0  0  0  0  0  0  0
    1.5970    0.9221    0.0000 H   0  0  0  0  0  0  0  0  0  0  0  0
    2.4440    0.6951    0.0000 H   0  0  0  0  0  0  0  0  0  0  0  0
  1  3  1  0  0  0  0
  1 12  1  0  0  0  0
  2 13  2  0  0  0  0
  3  4  1  0  0  0  0
  3  7  1  0  0  0  0
  3  8  1  0  0  0  0
  4 11  1  0  0  0  0
  4 20  1  0  0  0  0
  4 21  1  0  0  0  0
  5  7  2  0  0  0  0
  5  9  1  0  0  0  0
  5 13  1  0  0  0  0
  6  8  2  0  0  0  0
  6 10  1  0  0  0  0
  6 13  1  0  0  0  0
  7 22  1  0  0  0  0
  8 23  1  0  0  0  0
  9 14  1  0  0  0  0
  9 15  1  0  0  0  0
  9 16  1  0  0  0  0
 10 17  1  0  0  0  0
 10 18  1  0  0  0  0
 10 19  1  0  0  0  0
 11 12  1  0  0  0  0
 11 24  1  0  0  0  0
 11 25  1  0  0  0  0
 12 26  1  0  0  0  0
 12 27  1  0  0  0  0
 14 28  1  0  0  0  0
 14 29  1  0  0  0  0
 14 30  1  0  0  0  0
 15 31  1  0  0  0  0
 15 32  1  0  0  0  0
 15 33  1  0  0  0  0
 16 34  1  0  0  0  0
 16 35  1  0  0  0  0
 16 36  1  0  0  0  0
 17 37  1  0  0  0  0
 17 38  1  0  0  0  0
 17 39  1  0  0  0  0
 18 40  1  0  0  0  0
 18 41  1  0  0  0  0
 18 42  1  0  0  0  0
 19 43  1  0  0  0  0
 19 44  1  0  0  0  0
 19 45  1  0  0  0  0
M  END
> <PUBCHEM_COMPOUND_CID>
605776

> <PUBCHEM_COMPOUND_CANONICALIZED>
1

> <PUBCHEM_CACTVS_COMPLEXITY>
419

> <PUBCHEM_CACTVS_HBOND_ACCEPTOR>
2

> <PUBCHEM_CACTVS_HBOND_DONOR>
0

> <PUBCHEM_CACTVS_ROTATABLE_BOND>
2

> <PUBCHEM_CACTVS_SUBSKEYS>
AAADceB4MAAAAAAAAAAAAAAAAAAAASAAAAAgAAAAAAAAAAAAAAAAGgAAAAAADkSggAICAAAABACIAqBSAAAAAAAgAAAACAEAAEgABBIAIAACEAAEgAAIIYOAgEANAAAAAAAAAAAAAAAAAAAAAAAAAAAAAA==

> <PUBCHEM_IUPAC_OPENEYE_NAME>
7,9-ditert-butyl-1-oxaspiro[4.5]deca-6,9-dien-8-one

> <PUBCHEM_IUPAC_CAS_NAME>
7,9-ditert-butyl-1-oxaspiro[4.5]deca-6,9-dien-8-one

> <PUBCHEM_IUPAC_NAME_MARKUP>
7,9-di<I>tert</I>-butyl-1-oxaspiro[4.5]deca-6,9-dien-8-one

> <PUBCHEM_IUPAC_NAME>
7,9-ditert-butyl-1-oxaspiro[4.5]deca-6,9-dien-8-one

> <PUBCHEM_IUPAC_SYSTEMATIC_NAME>
7,9-ditert-butyl-1-oxaspiro[4.5]deca-6,9-dien-8-one

> <PUBCHEM_IUPAC_TRADITIONAL_NAME>
7,9-ditert-butyl-1-oxaspiro[4.5]deca-6,9-dien-8-one

> <PUBCHEM_IUPAC_INCHI>
InChI=1S/C17H26O2/c1-15(2,3)12-10-17(8-7-9-19-17)11-13(14(12)18)16(4,5)6/h10-11H,7-9H2,1-6H3

> <PUBCHEM_IUPAC_INCHIKEY>
NXVCHTCAMYVBEC-UHFFFAOYSA-N

> <PUBCHEM_XLOGP3_AA>
4.2

> <PUBCHEM_EXACT_MASS>
262.193280068

> <PUBCHEM_MOLECULAR_FORMULA>
C17H26O2

> <PUBCHEM_MOLECULAR_WEIGHT>
262.4

> <PUBCHEM_SMILES>
CC(C)(C)C1=CC2(CCCO2)C=C(C1=O)C(C)(C)C

> <PUBCHEM_CONNECTIVITY_SMILES>
CC(C)(C)C1=CC2(CCCO2)C=C(C1=O)C(C)(C)C

> <PUBCHEM_CACTVS_TPSA>
26.3

> <PUBCHEM_MONOISOTOPIC_WEIGHT>
262.193280068

> <PUBCHEM_TOTAL_CHARGE>
0

> <PUBCHEM_HEAVY_ATOM_COUNT>
19

> <PUBCHEM_ATOM_DEF_STEREO_COUNT>
0

> <PUBCHEM_ATOM_UDEF_STEREO_COUNT>
0

> <PUBCHEM_BOND_DEF_STEREO_COUNT>
0

> <PUBCHEM_BOND_UDEF_STEREO_COUNT>
0

> <PUBCHEM_ISOTOPIC_ATOM_COUNT>
0

> <PUBCHEM_COMPONENT_COUNT>
1

> <PUBCHEM_CACTVS_TAUTO_COUNT>
-1

> <PUBCHEM_COORDINATE_TYPE>
1
5
255

$$$$
