607587
  -OEChem-05122609162D

 32 34  0     1  0  0  0  0  0999 V2000
    2.0000   -1.7915    0.0000 O   0  0  0  0  0  0  0  0  0  0  0  0
    4.6641   -0.2673    0.0000 C   0  0  3  0  0  0  0  0  0  0  0  0
    4.6641   -1.2673    0.0000 C   0  0  0  0  0  0  0  0  0  0  0  0
    3.7702    0.2674    0.0000 C   0  0  0  0  0  0  0  0  0  0  0  0
    5.5301    0.2327    0.0000 C   0  0  0  0  0  0  0  0  0  0  0  0
    5.5301   -1.7673    0.0000 C   0  0  0  0  0  0  0  0  0  0  0  0
    6.3962   -1.2673    0.0000 C   0  0  0  0  0  0  0  0  0  0  0  0
    6.3962   -0.2673    0.0000 C   0  0  0  0  0  0  0  0  0  0  0  0
    4.6641    0.7327    0.0000 C   0  0  0  0  0  0  0  0  0  0  0  0
    2.8641   -0.2465    0.0000 C   0  0  0  0  0  0  0  0  0  0  0  0
    3.7702   -1.8020    0.0000 C   0  0  0  0  0  0  0  0  0  0  0  0
    2.8641   -1.2881    0.0000 C   0  0  0  0  0  0  0  0  0  0  0  0
    5.5141    1.2742    0.0000 C   0  0  0  0  0  0  0  0  0  0  0  0
    7.3062    0.2395    0.0000 C   0  0  0  0  0  0  0  0  0  0  0  0
    6.4121    1.8020    0.0000 C   0  0  0  0  0  0  0  0  0  0  0  0
    7.3142    1.2812    0.0000 C   0  0  0  0  0  0  0  0  0  0  0  0
    4.1748    0.7371    0.0000 H   0  0  0  0  0  0  0  0  0  0  0  0
    3.3765    0.7464    0.0000 H   0  0  0  0  0  0  0  0  0  0  0  0
    5.1316   -2.2423    0.0000 H   0  0  0  0  0  0  0  0  0  0  0  0
    5.9287   -2.2423    0.0000 H   0  0  0  0  0  0  0  0  0  0  0  0
    6.6082   -1.8499    0.0000 H   0  0  0  0  0  0  0  0  0  0  0  0
    7.0067   -1.1596    0.0000 H   0  0  0  0  0  0  0  0  0  0  0  0
    5.2841    0.7327    0.0000 H   0  0  0  0  0  0  0  0  0  0  0  0
    4.6641    1.3527    0.0000 H   0  0  0  0  0  0  0  0  0  0  0  0
    4.0441    0.7327    0.0000 H   0  0  0  0  0  0  0  0  0  0  0  0
    2.6550    0.3372    0.0000 H   0  0  0  0  0  0  0  0  0  0  0  0
    2.2532   -0.3526    0.0000 H   0  0  0  0  0  0  0  0  0  0  0  0
    3.7773   -2.4219    0.0000 H   0  0  0  0  0  0  0  0  0  0  0  0
    4.9736    1.5780    0.0000 H   0  0  0  0  0  0  0  0  0  0  0  0
    7.8395   -0.0766    0.0000 H   0  0  0  0  0  0  0  0  0  0  0  0
    6.4097    2.4220    0.0000 H   0  0  0  0  0  0  0  0  0  0  0  0
    7.8523    1.5891    0.0000 H   0  0  0  0  0  0  0  0  0  0  0  0
  1 12  2  0  0  0  0
  2  3  1  0  0  0  0
  2  4  1  0  0  0  0
  2  5  1  0  0  0  0
  2  9  1  0  0  0  0
  3  6  1  0  0  0  0
  3 11  2  0  0  0  0
  4 10  1  0  0  0  0
  4 17  1  0  0  0  0
  4 18  1  0  0  0  0
  5  8  1  0  0  0  0
  5 13  2  0  0  0  0
  6  7  1  0  0  0  0
  6 19  1  0  0  0  0
  6 20  1  0  0  0  0
  7  8  1  0  0  0  0
  7 21  1  0  0  0  0
  7 22  1  0  0  0  0
  8 14  2  0  0  0  0
  9 23  1  0  0  0  0
  9 24  1  0  0  0  0
  9 25  1  0  0  0  0
 10 12  1  0  0  0  0
 10 26  1  0  0  0  0
 10 27  1  0  0  0  0
 11 12  1  0  0  0  0
 11 28  1  0  0  0  0
 13 15  1  0  0  0  0
 13 29  1  0  0  0  0
 14 16  1  0  0  0  0
 14 30  1  0  0  0  0
 15 16  2  0  0  0  0
 15 31  1  0  0  0  0
 16 32  1  0  0  0  0
M  END
> <PUBCHEM_COMPOUND_CID>
607587

> <PUBCHEM_COMPOUND_CANONICALIZED>
1

> <PUBCHEM_CACTVS_COMPLEXITY>
341

> <PUBCHEM_CACTVS_HBOND_ACCEPTOR>
1

> <PUBCHEM_CACTVS_HBOND_DONOR>
0

> <PUBCHEM_CACTVS_ROTATABLE_BOND>
0

> <PUBCHEM_CACTVS_SUBSKEYS>
AAADceBwIAAAAAAAAAAAAAAAAAAAAAAAAAAwYIAAAAAAAADBAAAAGgAAAAAADgSAmAAyAIAAAACIAqBSAAACAAAgAAAIiAEAAMgIIDKAERCAIAAggAAIiQcIiMCPgAAAAAAQAAAAAAQAACAAAAAAAAAAAA==

> <PUBCHEM_IUPAC_OPENEYE_NAME>
4a-methyl-3,4,9,10-tetrahydrophenanthren-2-one

> <PUBCHEM_IUPAC_CAS_NAME>
4a-methyl-3,4,9,10-tetrahydrophenanthren-2-one

> <PUBCHEM_IUPAC_NAME_MARKUP>
4<I>a</I>-methyl-3,4,9,10-tetrahydrophenanthren-2-one

> <PUBCHEM_IUPAC_NAME>
4a-methyl-3,4,9,10-tetrahydrophenanthren-2-one

> <PUBCHEM_IUPAC_SYSTEMATIC_NAME>
4a-methyl-3,4,9,10-tetrahydrophenanthren-2-one

> <PUBCHEM_IUPAC_TRADITIONAL_NAME>
4a-methyl-3,4,9,10-tetrahydrophenanthren-2-one

> <PUBCHEM_IUPAC_INCHI>
InChI=1S/C15H16O/c1-15-9-8-13(16)10-12(15)7-6-11-4-2-3-5-14(11)15/h2-5,10H,6-9H2,1H3

> <PUBCHEM_IUPAC_INCHIKEY>
FSPGJSRKHCJARC-UHFFFAOYSA-N

> <PUBCHEM_XLOGP3_AA>
2.7

> <PUBCHEM_EXACT_MASS>
212.120115130

> <PUBCHEM_MOLECULAR_FORMULA>
C15H16O

> <PUBCHEM_MOLECULAR_WEIGHT>
212.29

> <PUBCHEM_SMILES>
CC12CCC(=O)C=C1CCC3=CC=CC=C23

> <PUBCHEM_CONNECTIVITY_SMILES>
CC12CCC(=O)C=C1CCC3=CC=CC=C23

> <PUBCHEM_CACTVS_TPSA>
17.1

> <PUBCHEM_MONOISOTOPIC_WEIGHT>
212.120115130

> <PUBCHEM_TOTAL_CHARGE>
0

> <PUBCHEM_HEAVY_ATOM_COUNT>
16

> <PUBCHEM_ATOM_DEF_STEREO_COUNT>
0

> <PUBCHEM_ATOM_UDEF_STEREO_COUNT>
1

> <PUBCHEM_BOND_DEF_STEREO_COUNT>
0

> <PUBCHEM_BOND_UDEF_STEREO_COUNT>
0

> <PUBCHEM_ISOTOPIC_ATOM_COUNT>
0

> <PUBCHEM_COMPONENT_COUNT>
1

> <PUBCHEM_CACTVS_TAUTO_COUNT>
-1

> <PUBCHEM_COORDINATE_TYPE>
1
5
255

> <PUBCHEM_BONDANNOTATIONS>
13  15  8
14  16  8
15  16  8
2  9  3
5  13  8
5  8  8
8  14  8

$$$$
