609369
  -OEChem-05122609492D

 28 31  0     0  0  0  0  0  0999 V2000
    7.1826   -0.1228    0.0000 C   0  0  0  0  0  0  0  0  0  0  0  0
    7.4414    0.8432    0.0000 C   0  0  0  0  0  0  0  0  0  0  0  0
    5.8099   -0.7148    0.0000 C   0  0  0  0  0  0  0  0  0  0  0  0
    5.4679    0.2249    0.0000 C   0  0  0  0  0  0  0  0  0  0  0  0
    8.8403    0.3343    0.0000 C   0  0  0  0  0  0  0  0  0  0  0  0
    8.5815   -0.6316    0.0000 C   0  0  0  0  0  0  0  0  0  0  0  0
    7.0708    2.1918    0.0000 C   0  0  0  0  0  0  0  0  0  0  0  0
    6.2048    1.6918    0.0000 C   0  0  0  0  0  0  0  0  0  0  0  0
    5.1527   -1.5230    0.0000 C   0  0  0  0  0  0  0  0  0  0  0  0
    4.4450    0.4216    0.0000 C   0  0  0  0  0  0  0  0  0  0  0  0
    4.1256   -1.3500    0.0000 C   0  0  0  0  0  0  0  0  0  0  0  0
    3.7693   -0.3712    0.0000 C   0  0  0  0  0  0  0  0  0  0  0  0
    3.4410   -2.1918    0.0000 C   0  0  0  0  0  0  0  0  0  0  0  0
    2.7038   -0.1663    0.0000 C   0  0  0  0  0  0  0  0  0  0  0  0
    2.3711   -2.0116    0.0000 C   0  0  0  0  0  0  0  0  0  0  0  0
    2.0000   -0.9921    0.0000 C   0  0  0  0  0  0  0  0  0  0  0  0
    7.5880    0.3463    0.0000 H   0  0  0  0  0  0  0  0  0  0  0  0
    7.8971    1.2635    0.0000 H   0  0  0  0  0  0  0  0  0  0  0  0
    9.3903    0.6207    0.0000 H   0  0  0  0  0  0  0  0  0  0  0  0
    7.3063    2.7654    0.0000 H   0  0  0  0  0  0  0  0  0  0  0  0
    8.8679   -1.1815    0.0000 H   0  0  0  0  0  0  0  0  0  0  0  0
    5.6083    1.8610    0.0000 H   0  0  0  0  0  0  0  0  0  0  0  0
    5.3715   -2.1031    0.0000 H   0  0  0  0  0  0  0  0  0  0  0  0
    4.2397    1.0066    0.0000 H   0  0  0  0  0  0  0  0  0  0  0  0
    3.6598   -2.7719    0.0000 H   0  0  0  0  0  0  0  0  0  0  0  0
    2.4985    0.4187    0.0000 H   0  0  0  0  0  0  0  0  0  0  0  0
    1.9744   -2.4881    0.0000 H   0  0  0  0  0  0  0  0  0  0  0  0
    1.3898   -0.8821    0.0000 H   0  0  0  0  0  0  0  0  0  0  0  0
  1  3  1  0  0  0  0
  1  6  1  0  0  0  0
  1  8  1  0  0  0  0
  1 17  1  0  0  0  0
  2  4  1  0  0  0  0
  2  5  1  0  0  0  0
  2  7  1  0  0  0  0
  2 18  1  0  0  0  0
  3  4  1  0  0  0  0
  3  9  2  0  0  0  0
  4 10  2  0  0  0  0
  5  6  2  0  0  0  0
  5 19  1  0  0  0  0
  6 21  1  0  0  0  0
  7  8  2  0  0  0  0
  7 20  1  0  0  0  0
  8 22  1  0  0  0  0
  9 11  1  0  0  0  0
  9 23  1  0  0  0  0
 10 12  1  0  0  0  0
 10 24  1  0  0  0  0
 11 12  1  0  0  0  0
 11 13  2  0  0  0  0
 12 14  2  0  0  0  0
 13 15  1  0  0  0  0
 13 25  1  0  0  0  0
 14 16  1  0  0  0  0
 14 26  1  0  0  0  0
 15 16  2  0  0  0  0
 15 27  1  0  0  0  0
 16 28  1  0  0  0  0
M  END
> <PUBCHEM_COMPOUND_CID>
609369

> <PUBCHEM_COMPOUND_CANONICALIZED>
1

> <PUBCHEM_CACTVS_COMPLEXITY>
292

> <PUBCHEM_CACTVS_HBOND_ACCEPTOR>
0

> <PUBCHEM_CACTVS_HBOND_DONOR>
0

> <PUBCHEM_CACTVS_ROTATABLE_BOND>
0

> <PUBCHEM_CACTVS_SUBSKEYS>
AAADccB4AAAAAAAAAAAAAAAAAAAAAAAAAAAwYIECAAAAAADBUAAAGAAAAAAADQCAGAAwAMAAAACAAiBCAAACAAAgAAAIiAAAAIgIICKAERCAIAAggAAIiAcAgMAOwAACAAAQAACAAAQAACAAAAAAAAAAAA==

> <PUBCHEM_IUPAC_OPENEYE_NAME>
tetracyclo[10.2.2.02,11.04,9]hexadeca-2,4,6,8,10,13,15-heptaene

> <PUBCHEM_IUPAC_CAS_NAME>
tetracyclo[10.2.2.02,11.04,9]hexadeca-2,4,6,8,10,13,15-heptaene

> <PUBCHEM_IUPAC_NAME_MARKUP>
tetracyclo[10.2.2.0<SUP>2,11</SUP>.0<SUP>4,9</SUP>]hexadeca-2,4,6,8,10,13,15-heptaene

> <PUBCHEM_IUPAC_NAME>
tetracyclo[10.2.2.02,11.04,9]hexadeca-2,4,6,8,10,13,15-heptaene

> <PUBCHEM_IUPAC_SYSTEMATIC_NAME>
tetracyclo[10.2.2.02,11.04,9]hexadeca-2,4,6,8,10,13,15-heptaene

> <PUBCHEM_IUPAC_TRADITIONAL_NAME>
tetracyclo[10.2.2.02,11.04,9]hexadeca-2,4,6,8,10,13,15-heptaene

> <PUBCHEM_IUPAC_INCHI>
InChI=1S/C16H12/c1-2-4-14-10-16-12-7-5-11(6-8-12)15(16)9-13(14)3-1/h1-12H

> <PUBCHEM_IUPAC_INCHIKEY>
FSVHOWXJQOZKEV-UHFFFAOYSA-N

> <PUBCHEM_XLOGP3_AA>
4.4

> <PUBCHEM_EXACT_MASS>
204.093900383

> <PUBCHEM_MOLECULAR_FORMULA>
C16H12

> <PUBCHEM_MOLECULAR_WEIGHT>
204.27

> <PUBCHEM_SMILES>
C1=CC=C2C=C3C4C=CC(C3=CC2=C1)C=C4

> <PUBCHEM_CONNECTIVITY_SMILES>
C1=CC=C2C=C3C4C=CC(C3=CC2=C1)C=C4

> <PUBCHEM_CACTVS_TPSA>
0

> <PUBCHEM_MONOISOTOPIC_WEIGHT>
204.093900383

> <PUBCHEM_TOTAL_CHARGE>
0

> <PUBCHEM_HEAVY_ATOM_COUNT>
16

> <PUBCHEM_ATOM_DEF_STEREO_COUNT>
0

> <PUBCHEM_ATOM_UDEF_STEREO_COUNT>
0

> <PUBCHEM_BOND_DEF_STEREO_COUNT>
0

> <PUBCHEM_BOND_UDEF_STEREO_COUNT>
0

> <PUBCHEM_ISOTOPIC_ATOM_COUNT>
0

> <PUBCHEM_COMPONENT_COUNT>
1

> <PUBCHEM_CACTVS_TAUTO_COUNT>
-1

> <PUBCHEM_COORDINATE_TYPE>
1
5
255

> <PUBCHEM_BONDANNOTATIONS>
10  12  8
11  12  8
11  13  8
12  14  8
13  15  8
14  16  8
15  16  8
3  4  8
3  9  8
4  10  8
9  11  8

$$$$
