609620
  -OEChem-05122608592D

 27 29  0     0  0  0  0  0  0999 V2000
    5.5321    0.9619    0.0000 N   0  0  0  0  0  0  0  0  0  0  0  0
    2.8660    0.4827    0.0000 C   0  0  0  0  0  0  0  0  0  0  0  0
    3.7321    0.9827    0.0000 C   0  0  0  0  0  0  0  0  0  0  0  0
    3.7321    1.9827    0.0000 C   0  0  0  0  0  0  0  0  0  0  0  0
    2.8660   -0.5173    0.0000 C   0  0  0  0  0  0  0  0  0  0  0  0
    2.0000    0.9827    0.0000 C   0  0  0  0  0  0  0  0  0  0  0  0
    2.8660    2.4827    0.0000 C   0  0  0  0  0  0  0  0  0  0  0  0
    2.0000    1.9827    0.0000 C   0  0  0  0  0  0  0  0  0  0  0  0
    4.6260    0.4480    0.0000 C   0  0  0  0  0  0  0  0  0  0  0  0
    4.6260    2.5173    0.0000 C   0  0  0  0  0  0  0  0  0  0  0  0
    2.0000   -1.0173    0.0000 C   0  0  0  0  0  0  0  0  0  0  0  0
    3.7321   -1.0173    0.0000 C   0  0  0  0  0  0  0  0  0  0  0  0
    5.5321    2.0035    0.0000 C   0  0  0  0  0  0  0  0  0  0  0  0
    2.0000   -2.0173    0.0000 C   0  0  0  0  0  0  0  0  0  0  0  0
    3.7321   -2.0173    0.0000 C   0  0  0  0  0  0  0  0  0  0  0  0
    2.8660   -2.5173    0.0000 C   0  0  0  0  0  0  0  0  0  0  0  0
    1.4631    0.6727    0.0000 H   0  0  0  0  0  0  0  0  0  0  0  0
    2.8660    3.1027    0.0000 H   0  0  0  0  0  0  0  0  0  0  0  0
    1.4631    2.2927    0.0000 H   0  0  0  0  0  0  0  0  0  0  0  0
    4.6188   -0.1720    0.0000 H   0  0  0  0  0  0  0  0  0  0  0  0
    4.6188    3.1373    0.0000 H   0  0  0  0  0  0  0  0  0  0  0  0
    1.4631   -0.7073    0.0000 H   0  0  0  0  0  0  0  0  0  0  0  0
    4.2690   -0.7073    0.0000 H   0  0  0  0  0  0  0  0  0  0  0  0
    6.0678    2.3156    0.0000 H   0  0  0  0  0  0  0  0  0  0  0  0
    1.4631   -2.3273    0.0000 H   0  0  0  0  0  0  0  0  0  0  0  0
    4.2690   -2.3273    0.0000 H   0  0  0  0  0  0  0  0  0  0  0  0
    2.8660   -3.1373    0.0000 H   0  0  0  0  0  0  0  0  0  0  0  0
  1  9  2  0  0  0  0
  1 13  1  0  0  0  0
  2  3  1  0  0  0  0
  2  5  1  0  0  0  0
  2  6  2  0  0  0  0
  3  4  2  0  0  0  0
  3  9  1  0  0  0  0
  4  7  1  0  0  0  0
  4 10  1  0  0  0  0
  5 11  2  0  0  0  0
  5 12  1  0  0  0  0
  6  8  1  0  0  0  0
  6 17  1  0  0  0  0
  7  8  2  0  0  0  0
  7 18  1  0  0  0  0
  8 19  1  0  0  0  0
  9 20  1  0  0  0  0
 10 13  2  0  0  0  0
 10 21  1  0  0  0  0
 11 14  1  0  0  0  0
 11 22  1  0  0  0  0
 12 15  2  0  0  0  0
 12 23  1  0  0  0  0
 13 24  1  0  0  0  0
 14 16  2  0  0  0  0
 14 25  1  0  0  0  0
 15 16  1  0  0  0  0
 15 26  1  0  0  0  0
 16 27  1  0  0  0  0
M  END
> <PUBCHEM_COMPOUND_CID>
609620

> <PUBCHEM_COMPOUND_CANONICALIZED>
1

> <PUBCHEM_CACTVS_COMPLEXITY>
219

> <PUBCHEM_CACTVS_HBOND_ACCEPTOR>
1

> <PUBCHEM_CACTVS_HBOND_DONOR>
0

> <PUBCHEM_CACTVS_ROTATABLE_BOND>
1

> <PUBCHEM_CACTVS_SUBSKEYS>
AAADccByAAAAAAAAAAAAAAAAAAAAAAAAAAA8YIAAAAAAAACx9AAAHAAAAAAADADBGgQ8gNIIEACgAjBnRACCgCAxAiAI2CA4ZJgIIGLAkZGEIAhggADIyAcQgMAOgAACAAAQAAAAAAQAACAAAAAAAAAAAA==

> <PUBCHEM_IUPAC_OPENEYE_NAME>
8-phenylisoquinoline

> <PUBCHEM_IUPAC_CAS_NAME>
8-phenylisoquinoline

> <PUBCHEM_IUPAC_NAME_MARKUP>
8-phenylisoquinoline

> <PUBCHEM_IUPAC_NAME>
8-phenylisoquinoline

> <PUBCHEM_IUPAC_SYSTEMATIC_NAME>
8-phenylisoquinoline

> <PUBCHEM_IUPAC_TRADITIONAL_NAME>
8-phenylisoquinoline

> <PUBCHEM_IUPAC_INCHI>
InChI=1S/C15H11N/c1-2-5-12(6-3-1)14-8-4-7-13-9-10-16-11-15(13)14/h1-11H

> <PUBCHEM_IUPAC_INCHIKEY>
RPKRABUEPOPVDF-UHFFFAOYSA-N

> <PUBCHEM_XLOGP3_AA>
3.7

> <PUBCHEM_EXACT_MASS>
205.089149355

> <PUBCHEM_MOLECULAR_FORMULA>
C15H11N

> <PUBCHEM_MOLECULAR_WEIGHT>
205.25

> <PUBCHEM_SMILES>
C1=CC=C(C=C1)C2=CC=CC3=C2C=NC=C3

> <PUBCHEM_CONNECTIVITY_SMILES>
C1=CC=C(C=C1)C2=CC=CC3=C2C=NC=C3

> <PUBCHEM_CACTVS_TPSA>
12.9

> <PUBCHEM_MONOISOTOPIC_WEIGHT>
205.089149355

> <PUBCHEM_TOTAL_CHARGE>
0

> <PUBCHEM_HEAVY_ATOM_COUNT>
16

> <PUBCHEM_ATOM_DEF_STEREO_COUNT>
0

> <PUBCHEM_ATOM_UDEF_STEREO_COUNT>
0

> <PUBCHEM_BOND_DEF_STEREO_COUNT>
0

> <PUBCHEM_BOND_UDEF_STEREO_COUNT>
0

> <PUBCHEM_ISOTOPIC_ATOM_COUNT>
0

> <PUBCHEM_COMPONENT_COUNT>
1

> <PUBCHEM_CACTVS_TAUTO_COUNT>
-1

> <PUBCHEM_COORDINATE_TYPE>
1
5
255

> <PUBCHEM_BONDANNOTATIONS>
1  13  8
1  9  8
10  13  8
11  14  8
12  15  8
14  16  8
15  16  8
2  3  8
2  6  8
3  4  8
3  9  8
4  10  8
4  7  8
5  11  8
5  12  8
6  8  8
7  8  8

$$$$
