609923
  -OEChem-05122609552D

 43 46  0     1  0  0  0  0  0999 V2000
    6.4641    1.0000    0.0000 S   0  0  0  0  0  0  0  0  0  0  0  0
    4.5981    0.5000    0.0000 C   0  0  0  0  0  0  0  0  0  0  0  0
    5.5981    0.5000    0.0000 C   0  0  3  0  0  0  0  0  0  0  0  0
    5.0981    1.3660    0.0000 C   0  0  0  0  0  0  0  0  0  0  0  0
    4.5981   -0.5000    0.0000 C   0  0  0  0  0  0  0  0  0  0  0  0
    3.7320    1.0000    0.0000 C   0  0  0  0  0  0  0  0  0  0  0  0
    6.0982   -0.3660    0.0000 C   0  0  0  0  0  0  0  0  0  0  0  0
    3.7320   -1.0000    0.0000 C   0  0  0  0  0  0  0  0  0  0  0  0
    3.7320    2.0000    0.0000 C   0  0  0  0  0  0  0  0  0  0  0  0
    5.4641   -1.0000    0.0000 C   0  0  0  0  0  0  0  0  0  0  0  0
    2.8660    0.5000    0.0000 C   0  0  0  0  0  0  0  0  0  0  0  0
    7.3301    0.5000    0.0000 C   0  0  0  0  0  0  0  0  0  0  0  0
    3.7320   -2.0000    0.0000 C   0  0  0  0  0  0  0  0  0  0  0  0
    2.8660    2.5000    0.0000 C   0  0  0  0  0  0  0  0  0  0  0  0
    5.4641   -2.0000    0.0000 C   0  0  0  0  0  0  0  0  0  0  0  0
    2.0000    1.0000    0.0000 C   0  0  0  0  0  0  0  0  0  0  0  0
    4.5981   -2.5000    0.0000 C   0  0  0  0  0  0  0  0  0  0  0  0
    2.0000    2.0000    0.0000 C   0  0  0  0  0  0  0  0  0  0  0  0
    7.3301   -0.5000    0.0000 C   0  0  0  0  0  0  0  0  0  0  0  0
    8.1962    1.0000    0.0000 C   0  0  0  0  0  0  0  0  0  0  0  0
    8.1962   -1.0000    0.0000 C   0  0  0  0  0  0  0  0  0  0  0  0
    9.0622    0.5000    0.0000 C   0  0  0  0  0  0  0  0  0  0  0  0
    9.0622   -0.5000    0.0000 C   0  0  0  0  0  0  0  0  0  0  0  0
    5.5730    1.7646    0.0000 H   0  0  0  0  0  0  0  0  0  0  0  0
    4.6231    1.7646    0.0000 H   0  0  0  0  0  0  0  0  0  0  0  0
    5.5613   -0.6760    0.0000 H   0  0  0  0  0  0  0  0  0  0  0  0
    6.4082   -0.9029    0.0000 H   0  0  0  0  0  0  0  0  0  0  0  0
    6.6351   -0.0559    0.0000 H   0  0  0  0  0  0  0  0  0  0  0  0
    3.1951   -0.6900    0.0000 H   0  0  0  0  0  0  0  0  0  0  0  0
    4.2690    2.3100    0.0000 H   0  0  0  0  0  0  0  0  0  0  0  0
    6.0010   -0.6900    0.0000 H   0  0  0  0  0  0  0  0  0  0  0  0
    2.8660   -0.1200    0.0000 H   0  0  0  0  0  0  0  0  0  0  0  0
    3.1951   -2.3100    0.0000 H   0  0  0  0  0  0  0  0  0  0  0  0
    2.8660    3.1200    0.0000 H   0  0  0  0  0  0  0  0  0  0  0  0
    6.0010   -2.3100    0.0000 H   0  0  0  0  0  0  0  0  0  0  0  0
    1.4631    0.6900    0.0000 H   0  0  0  0  0  0  0  0  0  0  0  0
    4.5981   -3.1200    0.0000 H   0  0  0  0  0  0  0  0  0  0  0  0
    1.4631    2.3100    0.0000 H   0  0  0  0  0  0  0  0  0  0  0  0
    6.7932   -0.8100    0.0000 H   0  0  0  0  0  0  0  0  0  0  0  0
    8.1962    1.6200    0.0000 H   0  0  0  0  0  0  0  0  0  0  0  0
    8.1962   -1.6200    0.0000 H   0  0  0  0  0  0  0  0  0  0  0  0
    9.5991    0.8100    0.0000 H   0  0  0  0  0  0  0  0  0  0  0  0
    9.5991   -0.8100    0.0000 H   0  0  0  0  0  0  0  0  0  0  0  0
  1  3  1  0  0  0  0
  1 12  1  0  0  0  0
  2  3  1  0  0  0  0
  2  4  1  0  0  0  0
  2  5  1  0  0  0  0
  2  6  1  0  0  0  0
  3  4  1  0  0  0  0
  3  7  1  0  0  0  0
  4 24  1  0  0  0  0
  4 25  1  0  0  0  0
  5  8  2  0  0  0  0
  5 10  1  0  0  0  0
  6  9  2  0  0  0  0
  6 11  1  0  0  0  0
  7 26  1  0  0  0  0
  7 27  1  0  0  0  0
  7 28  1  0  0  0  0
  8 13  1  0  0  0  0
  8 29  1  0  0  0  0
  9 14  1  0  0  0  0
  9 30  1  0  0  0  0
 10 15  2  0  0  0  0
 10 31  1  0  0  0  0
 11 16  2  0  0  0  0
 11 32  1  0  0  0  0
 12 19  2  0  0  0  0
 12 20  1  0  0  0  0
 13 17  2  0  0  0  0
 13 33  1  0  0  0  0
 14 18  2  0  0  0  0
 14 34  1  0  0  0  0
 15 17  1  0  0  0  0
 15 35  1  0  0  0  0
 16 18  1  0  0  0  0
 16 36  1  0  0  0  0
 17 37  1  0  0  0  0
 18 38  1  0  0  0  0
 19 21  1  0  0  0  0
 19 39  1  0  0  0  0
 20 22  2  0  0  0  0
 20 40  1  0  0  0  0
 21 23  2  0  0  0  0
 21 41  1  0  0  0  0
 22 23  1  0  0  0  0
 22 42  1  0  0  0  0
 23 43  1  0  0  0  0
M  END
> <PUBCHEM_COMPOUND_CID>
609923

> <PUBCHEM_COMPOUND_CANONICALIZED>
1

> <PUBCHEM_CACTVS_COMPLEXITY>
367

> <PUBCHEM_CACTVS_HBOND_ACCEPTOR>
1

> <PUBCHEM_CACTVS_HBOND_DONOR>
0

> <PUBCHEM_CACTVS_ROTATABLE_BOND>
4

> <PUBCHEM_CACTVS_SUBSKEYS>
AAADceB4AABAAAAAAAAAAAAAGAAAAAAAAAAwYMAAAAAAAAABUAAAGAQAAAAADgCAWAAyAYAAAAiAAiBCAAACAAAgCBAIiBgAAIgIICKgERCAIAAggAAoiAcAgMAPgAAAAAAAAAAAAAAAAAAAAAAAAAAAAA==

> <PUBCHEM_IUPAC_OPENEYE_NAME>
(1-methyl-2,2-diphenyl-cyclopropyl)sulfanylbenzene

> <PUBCHEM_IUPAC_CAS_NAME>
[(1-methyl-2,2-diphenylcyclopropyl)thio]benzene

> <PUBCHEM_IUPAC_NAME_MARKUP>
(1-methyl-2,2-diphenylcyclopropyl)sulfanylbenzene

> <PUBCHEM_IUPAC_NAME>
(1-methyl-2,2-diphenylcyclopropyl)sulfanylbenzene

> <PUBCHEM_IUPAC_SYSTEMATIC_NAME>
(1-methyl-2,2-diphenyl-cyclopropyl)sulfanylbenzene

> <PUBCHEM_IUPAC_TRADITIONAL_NAME>
[(1-methyl-2,2-diphenyl-cyclopropyl)thio]benzene

> <PUBCHEM_IUPAC_INCHI>
InChI=1S/C22H20S/c1-21(23-20-15-9-4-10-16-20)17-22(21,18-11-5-2-6-12-18)19-13-7-3-8-14-19/h2-16H,17H2,1H3

> <PUBCHEM_IUPAC_INCHIKEY>
DKKGXIJGZVZJRU-UHFFFAOYSA-N

> <PUBCHEM_XLOGP3_AA>
6.2

> <PUBCHEM_EXACT_MASS>
316.12857181

> <PUBCHEM_MOLECULAR_FORMULA>
C22H20S

> <PUBCHEM_MOLECULAR_WEIGHT>
316.5

> <PUBCHEM_SMILES>
CC1(CC1(C2=CC=CC=C2)C3=CC=CC=C3)SC4=CC=CC=C4

> <PUBCHEM_CONNECTIVITY_SMILES>
CC1(CC1(C2=CC=CC=C2)C3=CC=CC=C3)SC4=CC=CC=C4

> <PUBCHEM_CACTVS_TPSA>
25.3

> <PUBCHEM_MONOISOTOPIC_WEIGHT>
316.12857181

> <PUBCHEM_TOTAL_CHARGE>
0

> <PUBCHEM_HEAVY_ATOM_COUNT>
23

> <PUBCHEM_ATOM_DEF_STEREO_COUNT>
0

> <PUBCHEM_ATOM_UDEF_STEREO_COUNT>
1

> <PUBCHEM_BOND_DEF_STEREO_COUNT>
0

> <PUBCHEM_BOND_UDEF_STEREO_COUNT>
0

> <PUBCHEM_ISOTOPIC_ATOM_COUNT>
0

> <PUBCHEM_COMPONENT_COUNT>
1

> <PUBCHEM_CACTVS_TAUTO_COUNT>
-1

> <PUBCHEM_COORDINATE_TYPE>
1
5
255

> <PUBCHEM_BONDANNOTATIONS>
10  15  8
11  16  8
12  19  8
12  20  8
13  17  8
14  18  8
15  17  8
16  18  8
19  21  8
20  22  8
21  23  8
22  23  8
3  7  3
5  10  8
5  8  8
6  11  8
6  9  8
8  13  8
9  14  8

$$$$
