610077
  -OEChem-05122608312D

 51 52  0     1  0  0  0  0  0999 V2000
    7.9718    0.9436    0.0000 O   0  5  0  0  0  0  0  0  0  0  0  0
    3.0000   -0.8660    0.0000 O   0  0  0  0  0  0  0  0  0  0  0  0
    7.2057    0.3008    0.0000 N   0  3  0  0  0  0  0  0  0  0  0  0
    4.5000    0.0000    0.0000 C   0  0  0  0  0  0  0  0  0  0  0  0
    6.4397   -0.3420    0.0000 C   0  0  3  0  0  0  0  0  0  0  0  0
    5.5000    0.0000    0.0000 C   0  0  0  0  0  0  0  0  0  0  0  0
    4.5000   -1.0000    0.0000 C   0  0  0  0  0  0  0  0  0  0  0  0
    4.5000    1.0000    0.0000 C   0  0  0  0  0  0  0  0  0  0  0  0
    3.5000    0.0000    0.0000 C   0  0  0  0  0  0  0  0  0  0  0  0
    6.6134   -1.3268    0.0000 C   0  0  0  0  0  0  0  0  0  0  0  0
    7.8485   -0.4653    0.0000 C   0  0  0  0  0  0  0  0  0  0  0  0
    6.5630    1.0668    0.0000 C   0  0  0  0  0  0  0  0  0  0  0  0
    3.0000    0.8660    0.0000 C   0  0  0  0  0  0  0  0  0  0  0  0
    5.3660   -1.5000    0.0000 C   0  0  0  0  0  0  0  0  0  0  0  0
    5.3660    1.5000    0.0000 C   0  0  0  0  0  0  0  0  0  0  0  0
    3.6340   -1.5000    0.0000 C   0  0  0  0  0  0  0  0  0  0  0  0
    3.6340    1.5000    0.0000 C   0  0  0  0  0  0  0  0  0  0  0  0
    2.0000    0.8660    0.0000 C   0  0  0  0  0  0  0  0  0  0  0  0
    5.3660   -2.5000    0.0000 C   0  0  0  0  0  0  0  0  0  0  0  0
    5.3660    2.5000    0.0000 C   0  0  0  0  0  0  0  0  0  0  0  0
    3.6340   -2.5000    0.0000 C   0  0  0  0  0  0  0  0  0  0  0  0
    3.6340    2.5000    0.0000 C   0  0  0  0  0  0  0  0  0  0  0  0
    4.5000   -3.0000    0.0000 C   0  0  0  0  0  0  0  0  0  0  0  0
    4.5000    3.0000    0.0000 C   0  0  0  0  0  0  0  0  0  0  0  0
    7.0223   -0.5540    0.0000 H   0  0  0  0  0  0  0  0  0  0  0  0
    5.9255    0.4510    0.0000 H   0  0  0  0  0  0  0  0  0  0  0  0
    5.3923   -0.6106    0.0000 H   0  0  0  0  0  0  0  0  0  0  0  0
    6.0028   -1.4345    0.0000 H   0  0  0  0  0  0  0  0  0  0  0  0
    6.7211   -1.9373    0.0000 H   0  0  0  0  0  0  0  0  0  0  0  0
    7.2240   -1.2190    0.0000 H   0  0  0  0  0  0  0  0  0  0  0  0
    7.3736   -0.8638    0.0000 H   0  0  0  0  0  0  0  0  0  0  0  0
    8.2470   -0.9402    0.0000 H   0  0  0  0  0  0  0  0  0  0  0  0
    8.3235   -0.0667    0.0000 H   0  0  0  0  0  0  0  0  0  0  0  0
    7.0379    1.4653    0.0000 H   0  0  0  0  0  0  0  0  0  0  0  0
    6.1644    1.5418    0.0000 H   0  0  0  0  0  0  0  0  0  0  0  0
    6.0880    0.6683    0.0000 H   0  0  0  0  0  0  0  0  0  0  0  0
    3.5826    1.0781    0.0000 H   0  0  0  0  0  0  0  0  0  0  0  0
    2.8923    1.4766    0.0000 H   0  0  0  0  0  0  0  0  0  0  0  0
    5.9030   -1.1900    0.0000 H   0  0  0  0  0  0  0  0  0  0  0  0
    5.9030    1.1900    0.0000 H   0  0  0  0  0  0  0  0  0  0  0  0
    3.0970   -1.1900    0.0000 H   0  0  0  0  0  0  0  0  0  0  0  0
    3.0970    1.1900    0.0000 H   0  0  0  0  0  0  0  0  0  0  0  0
    2.0000    1.4860    0.0000 H   0  0  0  0  0  0  0  0  0  0  0  0
    1.3800    0.8660    0.0000 H   0  0  0  0  0  0  0  0  0  0  0  0
    2.0000    0.2460    0.0000 H   0  0  0  0  0  0  0  0  0  0  0  0
    5.9030   -2.8100    0.0000 H   0  0  0  0  0  0  0  0  0  0  0  0
    5.9030    2.8100    0.0000 H   0  0  0  0  0  0  0  0  0  0  0  0
    3.0970   -2.8100    0.0000 H   0  0  0  0  0  0  0  0  0  0  0  0
    3.0970    2.8100    0.0000 H   0  0  0  0  0  0  0  0  0  0  0  0
    4.5000   -3.6200    0.0000 H   0  0  0  0  0  0  0  0  0  0  0  0
    4.5000    3.6200    0.0000 H   0  0  0  0  0  0  0  0  0  0  0  0
  1  3  1  0  0  0  0
  2  9  2  0  0  0  0
  3  5  1  0  0  0  0
  3 11  1  0  0  0  0
  3 12  1  0  0  0  0
  4  6  1  0  0  0  0
  4  7  1  0  0  0  0
  4  8  1  0  0  0  0
  4  9  1  0  0  0  0
  5  6  1  0  0  0  0
  5 10  1  0  0  0  0
  5 25  1  0  0  0  0
  6 26  1  0  0  0  0
  6 27  1  0  0  0  0
  7 14  2  0  0  0  0
  7 16  1  0  0  0  0
  8 15  2  0  0  0  0
  8 17  1  0  0  0  0
  9 13  1  0  0  0  0
 10 28  1  0  0  0  0
 10 29  1  0  0  0  0
 10 30  1  0  0  0  0
 11 31  1  0  0  0  0
 11 32  1  0  0  0  0
 11 33  1  0  0  0  0
 12 34  1  0  0  0  0
 12 35  1  0  0  0  0
 12 36  1  0  0  0  0
 13 18  1  0  0  0  0
 13 37  1  0  0  0  0
 13 38  1  0  0  0  0
 14 19  1  0  0  0  0
 14 39  1  0  0  0  0
 15 20  1  0  0  0  0
 15 40  1  0  0  0  0
 16 21  2  0  0  0  0
 16 41  1  0  0  0  0
 17 22  2  0  0  0  0
 17 42  1  0  0  0  0
 18 43  1  0  0  0  0
 18 44  1  0  0  0  0
 18 45  1  0  0  0  0
 19 23  2  0  0  0  0
 19 46  1  0  0  0  0
 20 24  2  0  0  0  0
 20 47  1  0  0  0  0
 21 23  1  0  0  0  0
 21 48  1  0  0  0  0
 22 24  1  0  0  0  0
 22 49  1  0  0  0  0
 23 50  1  0  0  0  0
 24 51  1  0  0  0  0
M  CHG  2   1  -1   3   1
M  END
> <PUBCHEM_COMPOUND_CID>
610077

> <PUBCHEM_COMPOUND_CANONICALIZED>
1

> <PUBCHEM_CACTVS_COMPLEXITY>
388

> <PUBCHEM_CACTVS_HBOND_ACCEPTOR>
2

> <PUBCHEM_CACTVS_HBOND_DONOR>
0

> <PUBCHEM_CACTVS_ROTATABLE_BOND>
7

> <PUBCHEM_CACTVS_SUBSKEYS>
AAADceB6MAAAAAAAAAAAAAAAAAAAAAAAAAAwYAAAAAAAAAABQAAAHgAEAAAADizBmAQyAIMQAACIAqBSAAACAAAgAAAoiAEIAIgIIDKAlRCEIAAggAAIiAcciMCPgAAAAAAAAAAAAAAAAAAAAAAAAAAAAA==

> <PUBCHEM_IUPAC_OPENEYE_NAME>
N,N-dimethyl-5-oxo-4,4-diphenyl-heptan-2-amine oxide

> <PUBCHEM_IUPAC_CAS_NAME>
N,N-dimethyl-5-oxo-4,4-diphenyl-2-heptanamine oxide

> <PUBCHEM_IUPAC_NAME_MARKUP>
<I>N</I>,<I>N</I>-dimethyl-5-oxo-4,4-diphenylheptan-2-amine oxide

> <PUBCHEM_IUPAC_NAME>
N,N-dimethyl-5-oxo-4,4-diphenylheptan-2-amine oxide

> <PUBCHEM_IUPAC_SYSTEMATIC_NAME>
N,N-dimethyl-5-oxidanylidene-4,4-diphenyl-heptan-2-amine oxide

> <PUBCHEM_IUPAC_TRADITIONAL_NAME>
5-keto-N,N-dimethyl-4,4-diphenyl-heptan-2-amine oxide

> <PUBCHEM_IUPAC_INCHI>
InChI=1S/C21H27NO2/c1-5-20(23)21(16-17(2)22(3,4)24,18-12-8-6-9-13-18)19-14-10-7-11-15-19/h6-15,17H,5,16H2,1-4H3

> <PUBCHEM_IUPAC_INCHIKEY>
JAGZVXZVPUWAKA-UHFFFAOYSA-N

> <PUBCHEM_XLOGP3>
3.4

> <PUBCHEM_EXACT_MASS>
325.204179104

> <PUBCHEM_MOLECULAR_FORMULA>
C21H27NO2

> <PUBCHEM_MOLECULAR_WEIGHT>
325.4

> <PUBCHEM_SMILES>
CCC(=O)C(CC(C)[N+](C)(C)[O-])(C1=CC=CC=C1)C2=CC=CC=C2

> <PUBCHEM_CONNECTIVITY_SMILES>
CCC(=O)C(CC(C)[N+](C)(C)[O-])(C1=CC=CC=C1)C2=CC=CC=C2

> <PUBCHEM_CACTVS_TPSA>
35.1

> <PUBCHEM_MONOISOTOPIC_WEIGHT>
325.204179104

> <PUBCHEM_TOTAL_CHARGE>
0

> <PUBCHEM_HEAVY_ATOM_COUNT>
24

> <PUBCHEM_ATOM_DEF_STEREO_COUNT>
0

> <PUBCHEM_ATOM_UDEF_STEREO_COUNT>
1

> <PUBCHEM_BOND_DEF_STEREO_COUNT>
0

> <PUBCHEM_BOND_UDEF_STEREO_COUNT>
0

> <PUBCHEM_ISOTOPIC_ATOM_COUNT>
0

> <PUBCHEM_COMPONENT_COUNT>
1

> <PUBCHEM_CACTVS_TAUTO_COUNT>
-1

> <PUBCHEM_COORDINATE_TYPE>
1
5
255

> <PUBCHEM_BONDANNOTATIONS>
14  19  8
15  20  8
16  21  8
17  22  8
19  23  8
20  24  8
21  23  8
22  24  8
5  10  3
7  14  8
7  16  8
8  15  8
8  17  8

$$$$
