612155
  -OEChem-05122609492D

 40 42  0     0  0  0  0  0  0999 V2000
    4.5092   -1.3965    0.0000 C   0  0  0  0  0  0  0  0  0  0  0  0
    3.6730    0.0518    0.0000 C   0  0  0  0  0  0  0  0  0  0  0  0
    2.8368   -1.3965    0.0000 C   0  0  0  0  0  0  0  0  0  0  0  0
    2.9819   -1.8316    0.0000 C   0  0  0  0  0  0  0  0  0  0  0  0
    4.5092   -0.4309    0.0000 C   0  0  0  0  0  0  0  0  0  0  0  0
    3.6730   -1.6993    0.0000 C   0  0  0  0  0  0  0  0  0  0  0  0
    3.8876   -2.3084    0.0000 C   0  0  0  0  0  0  0  0  0  0  0  0
    2.8368   -0.4309    0.0000 C   0  0  0  0  0  0  0  0  0  0  0  0
    2.9819   -0.7863    0.0000 C   0  0  0  0  0  0  0  0  0  0  0  0
    2.0000   -1.8793    0.0000 C   0  0  0  0  0  0  0  0  0  0  0  0
    5.2163   -2.1036    0.0000 C   0  0  0  0  0  0  0  0  0  0  0  0
    3.6730    1.0518    0.0000 C   0  0  0  0  0  0  0  0  0  0  0  0
    6.1822   -1.8448    0.0000 C   0  0  0  0  0  0  0  0  0  0  0  0
    4.5390    1.5518    0.0000 C   0  0  0  0  0  0  0  0  0  0  0  0
    6.8893   -2.5518    0.0000 C   0  0  0  0  0  0  0  0  0  0  0  0
    4.5390    2.5518    0.0000 C   0  0  0  0  0  0  0  0  0  0  0  0
    3.3444   -1.0404    0.0000 H   0  0  0  0  0  0  0  0  0  0  0  0
    2.8478   -2.4369    0.0000 H   0  0  0  0  0  0  0  0  0  0  0  0
    5.1198   -0.5386    0.0000 H   0  0  0  0  0  0  0  0  0  0  0  0
    4.7212    0.1517    0.0000 H   0  0  0  0  0  0  0  0  0  0  0  0
    3.3030   -2.1968    0.0000 H   0  0  0  0  0  0  0  0  0  0  0  0
    4.0430   -2.1968    0.0000 H   0  0  0  0  0  0  0  0  0  0  0  0
    3.5782   -2.8457    0.0000 H   0  0  0  0  0  0  0  0  0  0  0  0
    4.4127   -2.6379    0.0000 H   0  0  0  0  0  0  0  0  0  0  0  0
    2.6247    0.1517    0.0000 H   0  0  0  0  0  0  0  0  0  0  0  0
    2.2262   -0.5386    0.0000 H   0  0  0  0  0  0  0  0  0  0  0  0
    2.6383   -0.2702    0.0000 H   0  0  0  0  0  0  0  0  0  0  0  0
    2.3885   -0.9658    0.0000 H   0  0  0  0  0  0  0  0  0  0  0  0
    1.5188   -1.4884    0.0000 H   0  0  0  0  0  0  0  0  0  0  0  0
    1.8068   -2.4684    0.0000 H   0  0  0  0  0  0  0  0  0  0  0  0
    5.0558   -2.7025    0.0000 H   0  0  0  0  0  0  0  0  0  0  0  0
    3.1361    1.3618    0.0000 H   0  0  0  0  0  0  0  0  0  0  0  0
    6.3427   -1.2459    0.0000 H   0  0  0  0  0  0  0  0  0  0  0  0
    5.0760    1.2419    0.0000 H   0  0  0  0  0  0  0  0  0  0  0  0
    6.4509   -2.9903    0.0000 H   0  0  0  0  0  0  0  0  0  0  0  0
    7.3278   -2.9902    0.0000 H   0  0  0  0  0  0  0  0  0  0  0  0
    7.3277   -2.1134    0.0000 H   0  0  0  0  0  0  0  0  0  0  0  0
    5.1590    2.5519    0.0000 H   0  0  0  0  0  0  0  0  0  0  0  0
    4.5390    3.1718    0.0000 H   0  0  0  0  0  0  0  0  0  0  0  0
    3.9190    2.5518    0.0000 H   0  0  0  0  0  0  0  0  0  0  0  0
  1  5  1  0  0  0  0
  1  6  1  0  0  0  0
  1  7  1  0  0  0  0
  1 11  1  0  0  0  0
  2  5  1  0  0  0  0
  2  8  1  0  0  0  0
  2  9  1  0  0  0  0
  2 12  1  0  0  0  0
  3  6  1  0  0  0  0
  3  8  1  0  0  0  0
  3 10  1  0  0  0  0
  3 17  1  0  0  0  0
  4  7  1  0  0  0  0
  4  9  1  0  0  0  0
  4 10  1  0  0  0  0
  4 18  1  0  0  0  0
  5 19  1  0  0  0  0
  5 20  1  0  0  0  0
  6 21  1  0  0  0  0
  6 22  1  0  0  0  0
  7 23  1  0  0  0  0
  7 24  1  0  0  0  0
  8 25  1  0  0  0  0
  8 26  1  0  0  0  0
  9 27  1  0  0  0  0
  9 28  1  0  0  0  0
 10 29  1  0  0  0  0
 10 30  1  0  0  0  0
 11 13  2  3  0  0  0
 11 31  1  0  0  0  0
 12 14  2  3  0  0  0
 12 32  1  0  0  0  0
 13 15  1  0  0  0  0
 13 33  1  0  0  0  0
 14 16  1  0  0  0  0
 14 34  1  0  0  0  0
 15 35  1  0  0  0  0
 15 36  1  0  0  0  0
 15 37  1  0  0  0  0
 16 38  1  0  0  0  0
 16 39  1  0  0  0  0
 16 40  1  0  0  0  0
M  END
> <PUBCHEM_COMPOUND_CID>
612155

> <PUBCHEM_COMPOUND_CANONICALIZED>
1

> <PUBCHEM_CACTVS_COMPLEXITY>
290

> <PUBCHEM_CACTVS_HBOND_ACCEPTOR>
0

> <PUBCHEM_CACTVS_HBOND_DONOR>
0

> <PUBCHEM_CACTVS_ROTATABLE_BOND>
2

> <PUBCHEM_CACTVS_SUBSKEYS>
AAADceB4AAAAAAAAAAAAAAAAAAAAAAAAAAAwYMGAAAAAAAAAAAAAGAAAAAAADwCAAAACAAAAAACAACBCAAAAAAAgAAAICAAAAAgAAAIAAQAAAAAAgAAIAAMAgMAPAAAAAAAAAAAAAAQAAAAAAAAAAAAAAA==

> <PUBCHEM_IUPAC_OPENEYE_NAME>
1,3-bis(prop-1-enyl)adamantane

> <PUBCHEM_IUPAC_CAS_NAME>
1,3-bis(prop-1-enyl)adamantane

> <PUBCHEM_IUPAC_NAME_MARKUP>
1,3-bis(prop-1-enyl)adamantane

> <PUBCHEM_IUPAC_NAME>
1,3-bis(prop-1-enyl)adamantane

> <PUBCHEM_IUPAC_SYSTEMATIC_NAME>
1,3-bis(prop-1-enyl)adamantane

> <PUBCHEM_IUPAC_TRADITIONAL_NAME>
1,3-bis(prop-1-enyl)adamantane

> <PUBCHEM_IUPAC_INCHI>
InChI=1S/C16H24/c1-3-5-15-8-13-7-14(9-15)11-16(10-13,12-15)6-4-2/h3-6,13-14H,7-12H2,1-2H3

> <PUBCHEM_IUPAC_INCHIKEY>
ZGIYUXBNGDPCOY-UHFFFAOYSA-N

> <PUBCHEM_XLOGP3_AA>
5.6

> <PUBCHEM_EXACT_MASS>
216.187800766

> <PUBCHEM_MOLECULAR_FORMULA>
C16H24

> <PUBCHEM_MOLECULAR_WEIGHT>
216.36

> <PUBCHEM_SMILES>
CC=CC12CC3CC(C1)CC(C3)(C2)C=CC

> <PUBCHEM_CONNECTIVITY_SMILES>
CC=CC12CC3CC(C1)CC(C3)(C2)C=CC

> <PUBCHEM_CACTVS_TPSA>
0

> <PUBCHEM_MONOISOTOPIC_WEIGHT>
216.187800766

> <PUBCHEM_TOTAL_CHARGE>
0

> <PUBCHEM_HEAVY_ATOM_COUNT>
16

> <PUBCHEM_ATOM_DEF_STEREO_COUNT>
0

> <PUBCHEM_ATOM_UDEF_STEREO_COUNT>
0

> <PUBCHEM_BOND_DEF_STEREO_COUNT>
0

> <PUBCHEM_BOND_UDEF_STEREO_COUNT>
2

> <PUBCHEM_ISOTOPIC_ATOM_COUNT>
0

> <PUBCHEM_COMPONENT_COUNT>
1

> <PUBCHEM_CACTVS_TAUTO_COUNT>
-1

> <PUBCHEM_COORDINATE_TYPE>
1
5
255

> <PUBCHEM_BONDANNOTATIONS>
11  13  1
12  14  1

$$$$
