612523
  -OEChem-05122609052D

 28 28  0     0  0  0  0  0  0999 V2000
    2.0000   -1.2500    0.0000 Cl  0  0  0  0  0  0  0  0  0  0  0  0
    5.4641   -1.2500    0.0000 Cl  0  0  0  0  0  0  0  0  0  0  0  0
    3.7321   -2.2500    0.0000 O   0  0  0  0  0  0  0  0  0  0  0  0
    3.7321    1.7500    0.0000 C   0  0  0  0  0  0  0  0  0  0  0  0
    3.7321    0.7500    0.0000 C   0  0  0  0  0  0  0  0  0  0  0  0
    3.7321    2.7500    0.0000 C   0  0  0  0  0  0  0  0  0  0  0  0
    4.7321    1.7500    0.0000 C   0  0  0  0  0  0  0  0  0  0  0  0
    2.7321    1.7500    0.0000 C   0  0  0  0  0  0  0  0  0  0  0  0
    4.5981    0.2500    0.0000 C   0  0  0  0  0  0  0  0  0  0  0  0
    2.8660    0.2500    0.0000 C   0  0  0  0  0  0  0  0  0  0  0  0
    2.8660   -0.7500    0.0000 C   0  0  0  0  0  0  0  0  0  0  0  0
    4.5981   -0.7500    0.0000 C   0  0  0  0  0  0  0  0  0  0  0  0
    3.7321   -1.2500    0.0000 C   0  0  0  0  0  0  0  0  0  0  0  0
    2.8660   -2.7500    0.0000 C   0  0  0  0  0  0  0  0  0  0  0  0
    4.3521    2.7500    0.0000 H   0  0  0  0  0  0  0  0  0  0  0  0
    3.7321    3.3700    0.0000 H   0  0  0  0  0  0  0  0  0  0  0  0
    3.1121    2.7500    0.0000 H   0  0  0  0  0  0  0  0  0  0  0  0
    4.7321    1.1300    0.0000 H   0  0  0  0  0  0  0  0  0  0  0  0
    5.3521    1.7500    0.0000 H   0  0  0  0  0  0  0  0  0  0  0  0
    4.7321    2.3700    0.0000 H   0  0  0  0  0  0  0  0  0  0  0  0
    2.7321    2.3700    0.0000 H   0  0  0  0  0  0  0  0  0  0  0  0
    2.1121    1.7500    0.0000 H   0  0  0  0  0  0  0  0  0  0  0  0
    2.7321    1.1300    0.0000 H   0  0  0  0  0  0  0  0  0  0  0  0
    5.1350    0.5600    0.0000 H   0  0  0  0  0  0  0  0  0  0  0  0
    2.3291    0.5600    0.0000 H   0  0  0  0  0  0  0  0  0  0  0  0
    2.5560   -2.2131    0.0000 H   0  0  0  0  0  0  0  0  0  0  0  0
    2.3291   -3.0600    0.0000 H   0  0  0  0  0  0  0  0  0  0  0  0
    3.1760   -3.2869    0.0000 H   0  0  0  0  0  0  0  0  0  0  0  0
  1 11  1  0  0  0  0
  2 12  1  0  0  0  0
  3 13  1  0  0  0  0
  3 14  1  0  0  0  0
  4  5  1  0  0  0  0
  4  6  1  0  0  0  0
  4  7  1  0  0  0  0
  4  8  1  0  0  0  0
  5  9  2  0  0  0  0
  5 10  1  0  0  0  0
  6 15  1  0  0  0  0
  6 16  1  0  0  0  0
  6 17  1  0  0  0  0
  7 18  1  0  0  0  0
  7 19  1  0  0  0  0
  7 20  1  0  0  0  0
  8 21  1  0  0  0  0
  8 22  1  0  0  0  0
  8 23  1  0  0  0  0
  9 12  1  0  0  0  0
  9 24  1  0  0  0  0
 10 11  2  0  0  0  0
 10 25  1  0  0  0  0
 11 13  1  0  0  0  0
 12 13  2  0  0  0  0
 14 26  1  0  0  0  0
 14 27  1  0  0  0  0
 14 28  1  0  0  0  0
M  END
> <PUBCHEM_COMPOUND_CID>
612523

> <PUBCHEM_COMPOUND_CANONICALIZED>
1

> <PUBCHEM_CACTVS_COMPLEXITY>
176

> <PUBCHEM_CACTVS_HBOND_ACCEPTOR>
1

> <PUBCHEM_CACTVS_HBOND_DONOR>
0

> <PUBCHEM_CACTVS_ROTATABLE_BOND>
2

> <PUBCHEM_CACTVS_SUBSKEYS>
AAADccBwIAAGAAAAAAAAAAAAAAAAAAAAAAAwAAAAAAAAAAABAAAAGgIAAAAADgaAmCIyBoAABACAAiBCAAACCAAgJUAAiAAEC4gMJiOFMxqAMCAkwBEIqAeAwNAPoAAAIACACABAAABAAQAQAAAAAAAAAA==

> <PUBCHEM_IUPAC_OPENEYE_NAME>
5-tert-butyl-1,3-dichloro-2-methoxy-benzene

> <PUBCHEM_IUPAC_CAS_NAME>
5-tert-butyl-1,3-dichloro-2-methoxybenzene

> <PUBCHEM_IUPAC_NAME_MARKUP>
5-<I>tert</I>-butyl-1,3-dichloro-2-methoxybenzene

> <PUBCHEM_IUPAC_NAME>
5-tert-butyl-1,3-dichloro-2-methoxybenzene

> <PUBCHEM_IUPAC_SYSTEMATIC_NAME>
5-tert-butyl-1,3-bis(chloranyl)-2-methoxy-benzene

> <PUBCHEM_IUPAC_TRADITIONAL_NAME>
5-tert-butyl-1,3-dichloro-2-methoxy-benzene

> <PUBCHEM_IUPAC_INCHI>
InChI=1S/C11H14Cl2O/c1-11(2,3)7-5-8(12)10(14-4)9(13)6-7/h5-6H,1-4H3

> <PUBCHEM_IUPAC_INCHIKEY>
MTOROSUNXZKMLR-UHFFFAOYSA-N

> <PUBCHEM_XLOGP3_AA>
4.8

> <PUBCHEM_EXACT_MASS>
232.0421705

> <PUBCHEM_MOLECULAR_FORMULA>
C11H14Cl2O

> <PUBCHEM_MOLECULAR_WEIGHT>
233.13

> <PUBCHEM_SMILES>
CC(C)(C)C1=CC(=C(C(=C1)Cl)OC)Cl

> <PUBCHEM_CONNECTIVITY_SMILES>
CC(C)(C)C1=CC(=C(C(=C1)Cl)OC)Cl

> <PUBCHEM_CACTVS_TPSA>
9.2

> <PUBCHEM_MONOISOTOPIC_WEIGHT>
232.0421705

> <PUBCHEM_TOTAL_CHARGE>
0

> <PUBCHEM_HEAVY_ATOM_COUNT>
14

> <PUBCHEM_ATOM_DEF_STEREO_COUNT>
0

> <PUBCHEM_ATOM_UDEF_STEREO_COUNT>
0

> <PUBCHEM_BOND_DEF_STEREO_COUNT>
0

> <PUBCHEM_BOND_UDEF_STEREO_COUNT>
0

> <PUBCHEM_ISOTOPIC_ATOM_COUNT>
0

> <PUBCHEM_COMPONENT_COUNT>
1

> <PUBCHEM_CACTVS_TAUTO_COUNT>
-1

> <PUBCHEM_COORDINATE_TYPE>
1
5
255

> <PUBCHEM_BONDANNOTATIONS>
10  11  8
11  13  8
12  13  8
5  10  8
5  9  8
9  12  8

$$$$
