612807
  -OEChem-05122609122D

 31 35  0     1  0  0  0  0  0999 V2000
    3.0004    0.8927    0.0000 C   0  0  3  0  0  0  0  0  0  0  0  0
    2.5004    1.7587    0.0000 C   0  0  3  0  0  0  0  0  0  0  0  0
    3.5004    1.7587    0.0000 C   0  0  0  0  0  0  0  0  0  0  0  0
    2.0000    0.8924    0.0000 C   0  0  0  0  0  0  0  0  0  0  0  0
    4.0186    0.8846    0.0000 C   0  0  3  0  0  0  0  0  0  0  0  0
    2.4979    0.0066    0.0000 C   0  0  0  0  0  0  0  0  0  0  0  0
    3.5140    0.0027    0.0000 C   0  0  0  0  0  0  0  0  0  0  0  0
    5.0186    0.8923    0.0000 C   0  0  0  0  0  0  0  0  0  0  0  0
    5.5253    0.0302    0.0000 C   0  0  0  0  0  0  0  0  0  0  0  0
    5.5119    1.7622    0.0000 C   0  0  0  0  0  0  0  0  0  0  0  0
    6.5252    0.0379    0.0000 C   0  0  0  0  0  0  0  0  0  0  0  0
    6.5119    1.7699    0.0000 C   0  0  0  0  0  0  0  0  0  0  0  0
    4.9975   -0.8678    0.0000 C   0  0  0  0  0  0  0  0  0  0  0  0
    7.0186    0.9078    0.0000 C   0  0  0  0  0  0  0  0  0  0  0  0
    7.0668   -0.8519    0.0000 C   0  0  0  0  0  0  0  0  0  0  0  0
    5.5183   -1.7699    0.0000 C   0  0  0  0  0  0  0  0  0  0  0  0
    6.5599   -1.7619    0.0000 C   0  0  0  0  0  0  0  0  0  0  0  0
    3.3105    0.3558    0.0000 H   0  0  0  0  0  0  0  0  0  0  0  0
    2.1905    2.2957    0.0000 H   0  0  0  0  0  0  0  0  0  0  0  0
    3.8073    2.2974    0.0000 H   0  0  0  0  0  0  0  0  0  0  0  0
    1.3800    0.8961    0.0000 H   0  0  0  0  0  0  0  0  0  0  0  0
    4.3318    0.3495    0.0000 H   0  0  0  0  0  0  0  0  0  0  0  0
    2.1837   -0.5279    0.0000 H   0  0  0  0  0  0  0  0  0  0  0  0
    3.8240   -0.5342    0.0000 H   0  0  0  0  0  0  0  0  0  0  0  0
    5.1978    2.2967    0.0000 H   0  0  0  0  0  0  0  0  0  0  0  0
    6.8178    2.3092    0.0000 H   0  0  0  0  0  0  0  0  0  0  0  0
    4.3775   -0.8654    0.0000 H   0  0  0  0  0  0  0  0  0  0  0  0
    7.6385    0.9125    0.0000 H   0  0  0  0  0  0  0  0  0  0  0  0
    7.6867   -0.8399    0.0000 H   0  0  0  0  0  0  0  0  0  0  0  0
    5.2104   -2.3080    0.0000 H   0  0  0  0  0  0  0  0  0  0  0  0
    6.8761   -2.2952    0.0000 H   0  0  0  0  0  0  0  0  0  0  0  0
  1  2  1  0  0  0  0
  1  3  1  0  0  0  0
  1  4  1  0  0  0  0
  1 18  1  0  0  0  0
  2  3  1  0  0  0  0
  2  4  1  0  0  0  0
  2 19  1  0  0  0  0
  3  5  1  0  0  0  0
  3 20  1  0  0  0  0
  4  6  1  0  0  0  0
  4 21  1  0  0  0  0
  5  7  1  0  0  0  0
  5  8  1  0  0  0  0
  5 22  1  0  0  0  0
  6  7  2  0  0  0  0
  6 23  1  0  0  0  0
  7 24  1  0  0  0  0
  8  9  1  0  0  0  0
  8 10  2  0  0  0  0
  9 11  1  0  0  0  0
  9 13  2  0  0  0  0
 10 12  1  0  0  0  0
 10 25  1  0  0  0  0
 11 14  1  0  0  0  0
 11 15  2  0  0  0  0
 12 14  2  0  0  0  0
 12 26  1  0  0  0  0
 13 16  1  0  0  0  0
 13 27  1  0  0  0  0
 14 28  1  0  0  0  0
 15 17  1  0  0  0  0
 15 29  1  0  0  0  0
 16 17  2  0  0  0  0
 16 30  1  0  0  0  0
 17 31  1  0  0  0  0
M  END
> <PUBCHEM_COMPOUND_CID>
612807

> <PUBCHEM_COMPOUND_CANONICALIZED>
1

> <PUBCHEM_CACTVS_COMPLEXITY>
358

> <PUBCHEM_CACTVS_HBOND_ACCEPTOR>
0

> <PUBCHEM_CACTVS_HBOND_DONOR>
0

> <PUBCHEM_CACTVS_ROTATABLE_BOND>
1

> <PUBCHEM_CACTVS_SUBSKEYS>
AAADccB4AAAAAAAAAAAAAAAAGDAAAAAAAAAwYIEAAAAAAADBUAAAGAAAAAAADQCAGAAwAMAAAACAAiBCAAACAAAgAAAIiAAAAIgIICKAERCAIAAggAAIiAcAgMAOgAACAAAQAAAAAAQAACAAAAAAAAAAAA==

> <PUBCHEM_IUPAC_OPENEYE_NAME>
5-(1-naphthyl)tricyclo[4.1.0.02,7]hept-3-ene

> <PUBCHEM_IUPAC_CAS_NAME>
5-(1-naphthalenyl)tricyclo[4.1.0.02,7]hept-3-ene

> <PUBCHEM_IUPAC_NAME_MARKUP>
5-naphthalen-1-yltricyclo[4.1.0.0<SUP>2,7</SUP>]hept-3-ene

> <PUBCHEM_IUPAC_NAME>
5-naphthalen-1-yltricyclo[4.1.0.02,7]hept-3-ene

> <PUBCHEM_IUPAC_SYSTEMATIC_NAME>
5-naphthalen-1-yltricyclo[4.1.0.02,7]hept-3-ene

> <PUBCHEM_IUPAC_TRADITIONAL_NAME>
5-(1-naphthyl)tricyclo[4.1.0.02,7]hept-3-ene

> <PUBCHEM_IUPAC_INCHI>
InChI=1S/C17H14/c1-2-6-11-10(4-1)5-3-7-12(11)13-8-9-14-16-15(13)17(14)16/h1-9,13-17H

> <PUBCHEM_IUPAC_INCHIKEY>
JRKVCHCFYCZBHO-UHFFFAOYSA-N

> <PUBCHEM_XLOGP3_AA>
4.2

> <PUBCHEM_EXACT_MASS>
218.109550447

> <PUBCHEM_MOLECULAR_FORMULA>
C17H14

> <PUBCHEM_MOLECULAR_WEIGHT>
218.29

> <PUBCHEM_SMILES>
C1=CC=C2C(=C1)C=CC=C2C3C=CC4C5C4C35

> <PUBCHEM_CONNECTIVITY_SMILES>
C1=CC=C2C(=C1)C=CC=C2C3C=CC4C5C4C35

> <PUBCHEM_CACTVS_TPSA>
0

> <PUBCHEM_MONOISOTOPIC_WEIGHT>
218.109550447

> <PUBCHEM_TOTAL_CHARGE>
0

> <PUBCHEM_HEAVY_ATOM_COUNT>
17

> <PUBCHEM_ATOM_DEF_STEREO_COUNT>
0

> <PUBCHEM_ATOM_UDEF_STEREO_COUNT>
3

> <PUBCHEM_BOND_DEF_STEREO_COUNT>
0

> <PUBCHEM_BOND_UDEF_STEREO_COUNT>
0

> <PUBCHEM_ISOTOPIC_ATOM_COUNT>
0

> <PUBCHEM_COMPONENT_COUNT>
1

> <PUBCHEM_CACTVS_TAUTO_COUNT>
-1

> <PUBCHEM_COORDINATE_TYPE>
1
5
255

> <PUBCHEM_BONDANNOTATIONS>
1  4  3
10  12  8
11  14  8
11  15  8
12  14  8
13  16  8
15  17  8
16  17  8
2  4  3
5  8  3
8  10  8
8  9  8
9  11  8
9  13  8

$$$$
