614842
  -OEChem-05122609482D

 44 46  0     1  0  0  0  0  0999 V2000
    7.2641    0.2274    0.0000 C   0  0  3  0  0  0  0  0  0  0  0  0
    6.3981    0.7274    0.0000 C   0  0  3  0  0  0  0  0  0  0  0  0
    8.1741    0.7343    0.0000 C   0  0  3  0  0  0  0  0  0  0  0  0
    6.3820    1.7690    0.0000 C   0  0  0  0  0  0  0  0  0  0  0  0
    7.2641   -0.7726    0.0000 C   0  0  0  0  0  0  0  0  0  0  0  0
    8.1821    1.7759    0.0000 C   0  0  0  0  0  0  0  0  0  0  0  0
    7.2801    2.2967    0.0000 C   0  0  0  0  0  0  0  0  0  0  0  0
    5.5321    0.2274    0.0000 C   0  0  0  0  0  0  0  0  0  0  0  0
    6.3981   -1.2726    0.0000 C   0  0  0  0  0  0  0  0  0  0  0  0
    5.5321   -0.7726    0.0000 C   0  0  0  0  0  0  0  0  0  0  0  0
    9.0343    0.2243    0.0000 C   0  0  0  0  0  0  0  0  0  0  0  0
    4.6381    0.7621    0.0000 C   0  0  0  0  0  0  0  0  0  0  0  0
    4.6381   -1.3072    0.0000 C   0  0  0  0  0  0  0  0  0  0  0  0
    3.7320   -0.7934    0.0000 C   0  0  0  0  0  0  0  0  0  0  0  0
    3.7320    0.2483    0.0000 C   0  0  0  0  0  0  0  0  0  0  0  0
    2.8680   -1.2967    0.0000 C   0  0  0  0  0  0  0  0  0  0  0  0
    2.0000   -0.8001    0.0000 C   0  0  0  0  0  0  0  0  0  0  0  0
    2.8718   -2.2967    0.0000 C   0  0  0  0  0  0  0  0  0  0  0  0
    7.7986   -0.0867    0.0000 H   0  0  0  0  0  0  0  0  0  0  0  0
    6.9326    1.0416    0.0000 H   0  0  0  0  0  0  0  0  0  0  0  0
    8.7140    1.0391    0.0000 H   0  0  0  0  0  0  0  0  0  0  0  0
    6.1640    2.3494    0.0000 H   0  0  0  0  0  0  0  0  0  0  0  0
    5.7729    1.6535    0.0000 H   0  0  0  0  0  0  0  0  0  0  0  0
    7.4762   -1.3552    0.0000 H   0  0  0  0  0  0  0  0  0  0  0  0
    7.8747   -0.6649    0.0000 H   0  0  0  0  0  0  0  0  0  0  0  0
    8.7922    1.6651    0.0000 H   0  0  0  0  0  0  0  0  0  0  0  0
    8.3957    2.3580    0.0000 H   0  0  0  0  0  0  0  0  0  0  0  0
    7.6774    2.7727    0.0000 H   0  0  0  0  0  0  0  0  0  0  0  0
    6.8791    2.7696    0.0000 H   0  0  0  0  0  0  0  0  0  0  0  0
    5.9995   -1.7475    0.0000 H   0  0  0  0  0  0  0  0  0  0  0  0
    6.7966   -1.7475    0.0000 H   0  0  0  0  0  0  0  0  0  0  0  0
    8.7181   -0.3090    0.0000 H   0  0  0  0  0  0  0  0  0  0  0  0
    9.5676   -0.0919    0.0000 H   0  0  0  0  0  0  0  0  0  0  0  0
    9.3505    0.7576    0.0000 H   0  0  0  0  0  0  0  0  0  0  0  0
    4.6453    1.3821    0.0000 H   0  0  0  0  0  0  0  0  0  0  0  0
    4.6453   -1.9272    0.0000 H   0  0  0  0  0  0  0  0  0  0  0  0
    3.1963    0.5603    0.0000 H   0  0  0  0  0  0  0  0  0  0  0  0
    2.3322   -1.6088    0.0000 H   0  0  0  0  0  0  0  0  0  0  0  0
    2.3079   -0.2619    0.0000 H   0  0  0  0  0  0  0  0  0  0  0  0
    1.4619   -0.4921    0.0000 H   0  0  0  0  0  0  0  0  0  0  0  0
    1.6921   -1.3382    0.0000 H   0  0  0  0  0  0  0  0  0  0  0  0
    2.2518   -2.2991    0.0000 H   0  0  0  0  0  0  0  0  0  0  0  0
    2.8742   -2.9167    0.0000 H   0  0  0  0  0  0  0  0  0  0  0  0
    3.4918   -2.2943    0.0000 H   0  0  0  0  0  0  0  0  0  0  0  0
  1  2  1  0  0  0  0
  1  3  1  0  0  0  0
  1  5  1  0  0  0  0
  1 19  1  0  0  0  0
  2  4  1  0  0  0  0
  2  8  1  0  0  0  0
  2 20  1  0  0  0  0
  3  6  1  0  0  0  0
  3 11  1  0  0  0  0
  3 21  1  0  0  0  0
  4  7  1  0  0  0  0
  4 22  1  0  0  0  0
  4 23  1  0  0  0  0
  5  9  1  0  0  0  0
  5 24  1  0  0  0  0
  5 25  1  0  0  0  0
  6  7  1  0  0  0  0
  6 26  1  0  0  0  0
  6 27  1  0  0  0  0
  7 28  1  0  0  0  0
  7 29  1  0  0  0  0
  8 10  2  0  0  0  0
  8 12  1  0  0  0  0
  9 10  1  0  0  0  0
  9 30  1  0  0  0  0
  9 31  1  0  0  0  0
 10 13  1  0  0  0  0
 11 32  1  0  0  0  0
 11 33  1  0  0  0  0
 11 34  1  0  0  0  0
 12 15  2  0  0  0  0
 12 35  1  0  0  0  0
 13 14  2  0  0  0  0
 13 36  1  0  0  0  0
 14 15  1  0  0  0  0
 14 16  1  0  0  0  0
 15 37  1  0  0  0  0
 16 17  1  0  0  0  0
 16 18  1  0  0  0  0
 16 38  1  0  0  0  0
 17 39  1  0  0  0  0
 17 40  1  0  0  0  0
 17 41  1  0  0  0  0
 18 42  1  0  0  0  0
 18 43  1  0  0  0  0
 18 44  1  0  0  0  0
M  END
> <PUBCHEM_COMPOUND_CID>
614842

> <PUBCHEM_COMPOUND_CANONICALIZED>
1

> <PUBCHEM_CACTVS_COMPLEXITY>
280

> <PUBCHEM_CACTVS_HBOND_ACCEPTOR>
0

> <PUBCHEM_CACTVS_HBOND_DONOR>
0

> <PUBCHEM_CACTVS_ROTATABLE_BOND>
1

> <PUBCHEM_CACTVS_SUBSKEYS>
AAADceB4AAAAAAAAAAAAAAAAAAAAAAAAAAAwYMAAAAAAAADBAAAAGAAAAAAADQCAGAAyAIAAAACAAiBCAAACAAAgAAAIiAAAAIgIICKAERCAIAAggAAIiAcAgMAOwAACAAAQAACAAAQAACAAAAAAAAAAAA==

> <PUBCHEM_IUPAC_OPENEYE_NAME>
7-isopropyl-1-methyl-1,2,3,4,4a,9,10,10a-octahydrophenanthrene

> <PUBCHEM_IUPAC_CAS_NAME>
1-methyl-7-propan-2-yl-1,2,3,4,4a,9,10,10a-octahydrophenanthrene

> <PUBCHEM_IUPAC_NAME_MARKUP>
1-methyl-7-propan-2-yl-1,2,3,4,4<I>a</I>,9,10,10<I>a</I>-octahydrophenanthrene

> <PUBCHEM_IUPAC_NAME>
1-methyl-7-propan-2-yl-1,2,3,4,4a,9,10,10a-octahydrophenanthrene

> <PUBCHEM_IUPAC_SYSTEMATIC_NAME>
1-methyl-7-propan-2-yl-1,2,3,4,4a,9,10,10a-octahydrophenanthrene

> <PUBCHEM_IUPAC_TRADITIONAL_NAME>
7-isopropyl-1-methyl-1,2,3,4,4a,9,10,10a-octahydrophenanthrene

> <PUBCHEM_IUPAC_INCHI>
InChI=1S/C18H26/c1-12(2)14-7-10-17-15(11-14)8-9-16-13(3)5-4-6-18(16)17/h7,10-13,16,18H,4-6,8-9H2,1-3H3

> <PUBCHEM_IUPAC_INCHIKEY>
XWUVCHRGACWHNI-UHFFFAOYSA-N

> <PUBCHEM_XLOGP3_AA>
6.1

> <PUBCHEM_EXACT_MASS>
242.203450829

> <PUBCHEM_MOLECULAR_FORMULA>
C18H26

> <PUBCHEM_MOLECULAR_WEIGHT>
242.4

> <PUBCHEM_SMILES>
CC1CCCC2C1CCC3=C2C=CC(=C3)C(C)C

> <PUBCHEM_CONNECTIVITY_SMILES>
CC1CCCC2C1CCC3=C2C=CC(=C3)C(C)C

> <PUBCHEM_CACTVS_TPSA>
0

> <PUBCHEM_MONOISOTOPIC_WEIGHT>
242.203450829

> <PUBCHEM_TOTAL_CHARGE>
0

> <PUBCHEM_HEAVY_ATOM_COUNT>
18

> <PUBCHEM_ATOM_DEF_STEREO_COUNT>
0

> <PUBCHEM_ATOM_UDEF_STEREO_COUNT>
3

> <PUBCHEM_BOND_DEF_STEREO_COUNT>
0

> <PUBCHEM_BOND_UDEF_STEREO_COUNT>
0

> <PUBCHEM_ISOTOPIC_ATOM_COUNT>
0

> <PUBCHEM_COMPONENT_COUNT>
1

> <PUBCHEM_CACTVS_TAUTO_COUNT>
-1

> <PUBCHEM_COORDINATE_TYPE>
1
5
255

> <PUBCHEM_BONDANNOTATIONS>
1  5  3
10  13  8
12  15  8
13  14  8
14  15  8
2  4  3
3  11  3
8  10  8
8  12  8

$$$$
