61719
  -OEChem-05122608102D

 46 48  0     0  0  0  0  0  0999 V2000
    4.6660    2.0000    0.0000 O   0  0  0  0  0  0  0  0  0  0  0  0
    4.6660   -2.0000    0.0000 O   0  0  0  0  0  0  0  0  0  0  0  0
    6.4144    2.0346    0.0000 N   0  0  0  0  0  0  0  0  0  0  0  0
    6.4144   -2.0346    0.0000 N   0  0  0  0  0  0  0  0  0  0  0  0
    5.5321    0.5000    0.0000 C   0  0  0  0  0  0  0  0  0  0  0  0
    5.5321   -0.5000    0.0000 C   0  0  0  0  0  0  0  0  0  0  0  0
    6.4260    1.0347    0.0000 C   0  0  0  0  0  0  0  0  0  0  0  0
    6.4260   -1.0347    0.0000 C   0  0  0  0  0  0  0  0  0  0  0  0
    4.6660    1.0000    0.0000 C   0  0  0  0  0  0  0  0  0  0  0  0
    4.6660   -1.0000    0.0000 C   0  0  0  0  0  0  0  0  0  0  0  0
    3.8000    0.5000    0.0000 C   0  0  0  0  0  0  0  0  0  0  0  0
    3.8000   -0.5000    0.0000 C   0  0  0  0  0  0  0  0  0  0  0  0
    7.2746    2.5446    0.0000 C   0  0  0  0  0  0  0  0  0  0  0  0
    7.2746   -2.5446    0.0000 C   0  0  0  0  0  0  0  0  0  0  0  0
    7.3321    0.5208    0.0000 C   0  0  0  0  0  0  0  0  0  0  0  0
    7.3321   -0.5208    0.0000 C   0  0  0  0  0  0  0  0  0  0  0  0
    2.9061    1.0347    0.0000 C   0  0  0  0  0  0  0  0  0  0  0  0
    2.9061   -1.0347    0.0000 C   0  0  0  0  0  0  0  0  0  0  0  0
    7.2631    3.5445    0.0000 C   0  0  0  0  0  0  0  0  0  0  0  0
    8.1464    2.0546    0.0000 C   0  0  0  0  0  0  0  0  0  0  0  0
    7.2631   -3.5445    0.0000 C   0  0  0  0  0  0  0  0  0  0  0  0
    8.1464   -2.0546    0.0000 C   0  0  0  0  0  0  0  0  0  0  0  0
    2.0000    0.5208    0.0000 C   0  0  0  0  0  0  0  0  0  0  0  0
    2.0000   -0.5208    0.0000 C   0  0  0  0  0  0  0  0  0  0  0  0
    6.7341    2.8484    0.0000 H   0  0  0  0  0  0  0  0  0  0  0  0
    6.7341   -2.8484    0.0000 H   0  0  0  0  0  0  0  0  0  0  0  0
    5.8740    2.3384    0.0000 H   0  0  0  0  0  0  0  0  0  0  0  0
    5.8740   -2.3384    0.0000 H   0  0  0  0  0  0  0  0  0  0  0  0
    7.8678    0.8329    0.0000 H   0  0  0  0  0  0  0  0  0  0  0  0
    7.8678   -0.8329    0.0000 H   0  0  0  0  0  0  0  0  0  0  0  0
    2.9132    1.6546    0.0000 H   0  0  0  0  0  0  0  0  0  0  0  0
    2.9132   -1.6546    0.0000 H   0  0  0  0  0  0  0  0  0  0  0  0
    7.8830    3.5517    0.0000 H   0  0  0  0  0  0  0  0  0  0  0  0
    7.2559    4.1645    0.0000 H   0  0  0  0  0  0  0  0  0  0  0  0
    6.6431    3.5373    0.0000 H   0  0  0  0  0  0  0  0  0  0  0  0
    7.8426    1.5141    0.0000 H   0  0  0  0  0  0  0  0  0  0  0  0
    8.6869    1.7509    0.0000 H   0  0  0  0  0  0  0  0  0  0  0  0
    8.4501    2.5951    0.0000 H   0  0  0  0  0  0  0  0  0  0  0  0
    6.6431   -3.5373    0.0000 H   0  0  0  0  0  0  0  0  0  0  0  0
    7.2559   -4.1645    0.0000 H   0  0  0  0  0  0  0  0  0  0  0  0
    7.8830   -3.5517    0.0000 H   0  0  0  0  0  0  0  0  0  0  0  0
    8.4501   -2.5951    0.0000 H   0  0  0  0  0  0  0  0  0  0  0  0
    8.6869   -1.7509    0.0000 H   0  0  0  0  0  0  0  0  0  0  0  0
    7.8426   -1.5141    0.0000 H   0  0  0  0  0  0  0  0  0  0  0  0
    1.4643    0.8329    0.0000 H   0  0  0  0  0  0  0  0  0  0  0  0
    1.4643   -0.8329    0.0000 H   0  0  0  0  0  0  0  0  0  0  0  0
  1  9  2  0  0  0  0
  2 10  2  0  0  0  0
  3  7  1  0  0  0  0
  3 13  1  0  0  0  0
  3 27  1  0  0  0  0
  4  8  1  0  0  0  0
  4 14  1  0  0  0  0
  4 28  1  0  0  0  0
  5  6  1  0  0  0  0
  5  7  2  0  0  0  0
  5  9  1  0  0  0  0
  6  8  2  0  0  0  0
  6 10  1  0  0  0  0
  7 15  1  0  0  0  0
  8 16  1  0  0  0  0
  9 11  1  0  0  0  0
 10 12  1  0  0  0  0
 11 12  1  0  0  0  0
 11 17  2  0  0  0  0
 12 18  2  0  0  0  0
 13 19  1  0  0  0  0
 13 20  1  0  0  0  0
 13 25  1  0  0  0  0
 14 21  1  0  0  0  0
 14 22  1  0  0  0  0
 14 26  1  0  0  0  0
 15 16  2  0  0  0  0
 15 29  1  0  0  0  0
 16 30  1  0  0  0  0
 17 23  1  0  0  0  0
 17 31  1  0  0  0  0
 18 24  1  0  0  0  0
 18 32  1  0  0  0  0
 19 33  1  0  0  0  0
 19 34  1  0  0  0  0
 19 35  1  0  0  0  0
 20 36  1  0  0  0  0
 20 37  1  0  0  0  0
 20 38  1  0  0  0  0
 21 39  1  0  0  0  0
 21 40  1  0  0  0  0
 21 41  1  0  0  0  0
 22 42  1  0  0  0  0
 22 43  1  0  0  0  0
 22 44  1  0  0  0  0
 23 24  2  0  0  0  0
 23 45  1  0  0  0  0
 24 46  1  0  0  0  0
M  END
> <PUBCHEM_COMPOUND_CID>
61719

> <PUBCHEM_COMPOUND_CANONICALIZED>
1

> <PUBCHEM_CACTVS_COMPLEXITY>
444

> <PUBCHEM_CACTVS_HBOND_ACCEPTOR>
4

> <PUBCHEM_CACTVS_HBOND_DONOR>
2

> <PUBCHEM_CACTVS_ROTATABLE_BOND>
4

> <PUBCHEM_CACTVS_SUBSKEYS>
AAADceB7MAAAAAAAAAAAAAAAAAAAAAAAAAAwYMAAAAAAAADBQAAAHgAQAAAADCzBmAQywILAAACIAqRSQACCAAAlAgAIiIEIZMgIIDrAlZGEIYhgkADIyccdiMCOgACAQAASAACAAQSAACQAAAAAAAAAAA==

> <PUBCHEM_IUPAC_OPENEYE_NAME>
1,4-bis(isopropylamino)anthracene-9,10-dione

> <PUBCHEM_IUPAC_CAS_NAME>
1,4-bis(propan-2-ylamino)anthracene-9,10-dione

> <PUBCHEM_IUPAC_NAME_MARKUP>
1,4-bis(propan-2-ylamino)anthracene-9,10-dione

> <PUBCHEM_IUPAC_NAME>
1,4-bis(propan-2-ylamino)anthracene-9,10-dione

> <PUBCHEM_IUPAC_SYSTEMATIC_NAME>
1,4-bis(propan-2-ylamino)anthracene-9,10-dione

> <PUBCHEM_IUPAC_TRADITIONAL_NAME>
1,4-bis(isopropylamino)-9,10-anthraquinone

> <PUBCHEM_IUPAC_INCHI>
InChI=1S/C20H22N2O2/c1-11(2)21-15-9-10-16(22-12(3)4)18-17(15)19(23)13-7-5-6-8-14(13)20(18)24/h5-12,21-22H,1-4H3

> <PUBCHEM_IUPAC_INCHIKEY>
BLFZMXOCPASACY-UHFFFAOYSA-N

> <PUBCHEM_XLOGP3_AA>
5.5

> <PUBCHEM_EXACT_MASS>
322.168127949

> <PUBCHEM_MOLECULAR_FORMULA>
C20H22N2O2

> <PUBCHEM_MOLECULAR_WEIGHT>
322.4

> <PUBCHEM_SMILES>
CC(C)NC1=C2C(=C(C=C1)NC(C)C)C(=O)C3=CC=CC=C3C2=O

> <PUBCHEM_CONNECTIVITY_SMILES>
CC(C)NC1=C2C(=C(C=C1)NC(C)C)C(=O)C3=CC=CC=C3C2=O

> <PUBCHEM_CACTVS_TPSA>
58.2

> <PUBCHEM_MONOISOTOPIC_WEIGHT>
322.168127949

> <PUBCHEM_TOTAL_CHARGE>
0

> <PUBCHEM_HEAVY_ATOM_COUNT>
24

> <PUBCHEM_ATOM_DEF_STEREO_COUNT>
0

> <PUBCHEM_ATOM_UDEF_STEREO_COUNT>
0

> <PUBCHEM_BOND_DEF_STEREO_COUNT>
0

> <PUBCHEM_BOND_UDEF_STEREO_COUNT>
0

> <PUBCHEM_ISOTOPIC_ATOM_COUNT>
0

> <PUBCHEM_COMPONENT_COUNT>
1

> <PUBCHEM_CACTVS_TAUTO_COUNT>
-1

> <PUBCHEM_COORDINATE_TYPE>
1
5
255

> <PUBCHEM_BONDANNOTATIONS>
11  12  8
11  17  8
12  18  8
15  16  8
17  23  8
18  24  8
23  24  8
5  6  8
5  7  8
6  8  8
7  15  8
8  16  8

$$$$
