618848
  -OEChem-05122608132D

 23 25  0     0  0  0  0  0  0999 V2000
    8.1962    0.5415    0.0000 Cl  0  0  0  0  0  0  0  0  0  0  0  0
    4.6660   -1.4827    0.0000 S   0  0  0  0  0  0  0  0  0  0  0  0
    4.6660    1.5173    0.0000 O   0  0  0  0  0  0  0  0  0  0  0  0
    5.5321    0.0173    0.0000 C   0  0  0  0  0  0  0  0  0  0  0  0
    3.8000    0.0173    0.0000 C   0  0  0  0  0  0  0  0  0  0  0  0
    5.5321   -0.9827    0.0000 C   0  0  0  0  0  0  0  0  0  0  0  0
    3.8000   -0.9827    0.0000 C   0  0  0  0  0  0  0  0  0  0  0  0
    4.6660    0.5173    0.0000 C   0  0  0  0  0  0  0  0  0  0  0  0
    6.4260    0.5520    0.0000 C   0  0  0  0  0  0  0  0  0  0  0  0
    2.9061    0.5520    0.0000 C   0  0  0  0  0  0  0  0  0  0  0  0
    6.4260   -1.5173    0.0000 C   0  0  0  0  0  0  0  0  0  0  0  0
    2.9061   -1.5173    0.0000 C   0  0  0  0  0  0  0  0  0  0  0  0
    7.3321    0.0381    0.0000 C   0  0  0  0  0  0  0  0  0  0  0  0
    7.3321   -1.0035    0.0000 C   0  0  0  0  0  0  0  0  0  0  0  0
    2.0000    0.0381    0.0000 C   0  0  0  0  0  0  0  0  0  0  0  0
    2.0000   -1.0035    0.0000 C   0  0  0  0  0  0  0  0  0  0  0  0
    6.4188    1.1720    0.0000 H   0  0  0  0  0  0  0  0  0  0  0  0
    2.9132    1.1720    0.0000 H   0  0  0  0  0  0  0  0  0  0  0  0
    6.4188   -2.1373    0.0000 H   0  0  0  0  0  0  0  0  0  0  0  0
    2.9132   -2.1373    0.0000 H   0  0  0  0  0  0  0  0  0  0  0  0
    7.8678   -1.3156    0.0000 H   0  0  0  0  0  0  0  0  0  0  0  0
    1.4643    0.3502    0.0000 H   0  0  0  0  0  0  0  0  0  0  0  0
    1.4643   -1.3156    0.0000 H   0  0  0  0  0  0  0  0  0  0  0  0
  1 13  1  0  0  0  0
  2  6  1  0  0  0  0
  2  7  1  0  0  0  0
  3  8  2  0  0  0  0
  4  6  2  0  0  0  0
  4  8  1  0  0  0  0
  4  9  1  0  0  0  0
  5  7  1  0  0  0  0
  5  8  1  0  0  0  0
  5 10  2  0  0  0  0
  6 11  1  0  0  0  0
  7 12  2  0  0  0  0
  9 13  2  0  0  0  0
  9 17  1  0  0  0  0
 10 15  1  0  0  0  0
 10 18  1  0  0  0  0
 11 14  2  0  0  0  0
 11 19  1  0  0  0  0
 12 16  1  0  0  0  0
 12 20  1  0  0  0  0
 13 14  1  0  0  0  0
 14 21  1  0  0  0  0
 15 16  2  0  0  0  0
 15 22  1  0  0  0  0
 16 23  1  0  0  0  0
M  END
> <PUBCHEM_COMPOUND_CID>
618848

> <PUBCHEM_COMPOUND_CANONICALIZED>
1

> <PUBCHEM_CACTVS_COMPLEXITY>
294

> <PUBCHEM_CACTVS_HBOND_ACCEPTOR>
2

> <PUBCHEM_CACTVS_HBOND_DONOR>
0

> <PUBCHEM_CACTVS_ROTATABLE_BOND>
0

> <PUBCHEM_CACTVS_SUBSKEYS>
AAADcYBwIABEAAAAAAAAAAAAAAAAAAAAAAA0YIAAAAAAAACRQAAAGgYAAAAADAaA2CAwAYAAAAiIAqBSAAACAAAkDRAIiBkAAsgIIDKhFxCAIQAggAAoiYcIiMCOAAIAIAAEAAAABABAAAgAAAAAAAAAAA==

> <PUBCHEM_IUPAC_OPENEYE_NAME>
2-chlorothioxanthen-9-one

> <PUBCHEM_IUPAC_CAS_NAME>
2-chloro-9-thioxanthenone

> <PUBCHEM_IUPAC_NAME_MARKUP>
2-chlorothioxanthen-9-one

> <PUBCHEM_IUPAC_NAME>
2-chlorothioxanthen-9-one

> <PUBCHEM_IUPAC_SYSTEMATIC_NAME>
2-chloranylthioxanthen-9-one

> <PUBCHEM_IUPAC_TRADITIONAL_NAME>
2-chlorothioxanthen-9-one

> <PUBCHEM_IUPAC_INCHI>
InChI=1S/C13H7ClOS/c14-8-5-6-12-10(7-8)13(15)9-3-1-2-4-11(9)16-12/h1-7H

> <PUBCHEM_IUPAC_INCHIKEY>
ZCDADJXRUCOCJE-UHFFFAOYSA-N

> <PUBCHEM_XLOGP3>
4.6

> <PUBCHEM_EXACT_MASS>
245.9906137

> <PUBCHEM_MOLECULAR_FORMULA>
C13H7ClOS

> <PUBCHEM_MOLECULAR_WEIGHT>
246.71

> <PUBCHEM_SMILES>
C1=CC=C2C(=C1)C(=O)C3=C(S2)C=CC(=C3)Cl

> <PUBCHEM_CONNECTIVITY_SMILES>
C1=CC=C2C(=C1)C(=O)C3=C(S2)C=CC(=C3)Cl

> <PUBCHEM_CACTVS_TPSA>
42.4

> <PUBCHEM_MONOISOTOPIC_WEIGHT>
245.9906137

> <PUBCHEM_TOTAL_CHARGE>
0

> <PUBCHEM_HEAVY_ATOM_COUNT>
16

> <PUBCHEM_ATOM_DEF_STEREO_COUNT>
0

> <PUBCHEM_ATOM_UDEF_STEREO_COUNT>
0

> <PUBCHEM_BOND_DEF_STEREO_COUNT>
0

> <PUBCHEM_BOND_UDEF_STEREO_COUNT>
0

> <PUBCHEM_ISOTOPIC_ATOM_COUNT>
0

> <PUBCHEM_COMPONENT_COUNT>
1

> <PUBCHEM_CACTVS_TAUTO_COUNT>
-1

> <PUBCHEM_COORDINATE_TYPE>
1
5
255

> <PUBCHEM_BONDANNOTATIONS>
10  15  8
11  14  8
12  16  8
13  14  8
15  16  8
2  6  8
2  7  8
4  6  8
4  8  8
4  9  8
5  10  8
5  7  8
5  8  8
6  11  8
7  12  8
9  13  8

$$$$
