620819
  -OEChem-05122609552D

 51 53  0     1  0  0  0  0  0999 V2000
    2.0000   -2.5884    0.0000 O   0  0  0  0  0  0  0  0  0  0  0  0
    4.3838   -0.1704    0.0000 C   0  0  3  0  0  0  0  0  0  0  0  0
    4.3838   -1.1704    0.0000 C   0  0  3  0  0  0  0  0  0  0  0  0
    5.2499    0.3296    0.0000 C   0  0  3  0  0  0  0  0  0  0  0  0
    3.4899   -1.7050    0.0000 C   0  0  3  0  0  0  0  0  0  0  0  0
    3.4899    0.3643    0.0000 C   0  0  0  0  0  0  0  0  0  0  0  0
    5.2499   -1.6704    0.0000 C   0  0  0  0  0  0  0  0  0  0  0  0
    6.1159   -0.1704    0.0000 C   0  0  0  0  0  0  0  0  0  0  0  0
    2.5838   -1.1912    0.0000 C   0  0  0  0  0  0  0  0  0  0  0  0
    2.5838   -0.1496    0.0000 C   0  0  0  0  0  0  0  0  0  0  0  0
    5.2338    1.3711    0.0000 C   0  0  0  0  0  0  0  0  0  0  0  0
    6.1159   -1.1704    0.0000 C   0  0  0  0  0  0  0  0  0  0  0  0
    4.3838    0.8296    0.0000 C   0  0  0  0  0  0  0  0  0  0  0  0
    6.1318    1.8989    0.0000 C   0  0  0  0  0  0  0  0  0  0  0  0
    7.0339    1.3781    0.0000 C   0  0  3  0  0  0  0  0  0  0  0  0
    7.0259    0.3365    0.0000 C   0  0  0  0  0  0  0  0  0  0  0  0
    3.9999   -2.5652    0.0000 C   0  0  0  0  0  0  0  0  0  0  0  0
    2.9999   -2.5768    0.0000 C   0  0  0  0  0  0  0  0  0  0  0  0
    8.0339    1.3742    0.0000 C   0  0  0  0  0  0  0  0  0  0  0  0
    7.5372    2.2422    0.0000 C   0  0  0  0  0  0  0  0  0  0  0  0
    7.0406    3.1101    0.0000 C   0  0  0  0  0  0  0  0  0  0  0  0
    4.3886   -1.7904    0.0000 H   0  0  0  0  0  0  0  0  0  0  0  0
    5.7844    0.6438    0.0000 H   0  0  0  0  0  0  0  0  0  0  0  0
    3.8945    0.8341    0.0000 H   0  0  0  0  0  0  0  0  0  0  0  0
    3.0963    0.8433    0.0000 H   0  0  0  0  0  0  0  0  0  0  0  0
    4.8513   -2.1453    0.0000 H   0  0  0  0  0  0  0  0  0  0  0  0
    5.6484   -2.1453    0.0000 H   0  0  0  0  0  0  0  0  0  0  0  0
    1.9730   -1.0851    0.0000 H   0  0  0  0  0  0  0  0  0  0  0  0
    2.3748   -1.7749    0.0000 H   0  0  0  0  0  0  0  0  0  0  0  0
    2.3748    0.4341    0.0000 H   0  0  0  0  0  0  0  0  0  0  0  0
    1.9730   -0.2557    0.0000 H   0  0  0  0  0  0  0  0  0  0  0  0
    5.0158    1.9515    0.0000 H   0  0  0  0  0  0  0  0  0  0  0  0
    4.6247    1.2556    0.0000 H   0  0  0  0  0  0  0  0  0  0  0  0
    6.3279   -1.7530    0.0000 H   0  0  0  0  0  0  0  0  0  0  0  0
    6.7265   -1.0627    0.0000 H   0  0  0  0  0  0  0  0  0  0  0  0
    5.0038    0.8296    0.0000 H   0  0  0  0  0  0  0  0  0  0  0  0
    4.3838    1.4496    0.0000 H   0  0  0  0  0  0  0  0  0  0  0  0
    3.7638    0.8296    0.0000 H   0  0  0  0  0  0  0  0  0  0  0  0
    6.5291    2.3749    0.0000 H   0  0  0  0  0  0  0  0  0  0  0  0
    5.7309    2.3718    0.0000 H   0  0  0  0  0  0  0  0  0  0  0  0
    7.5592    0.0203    0.0000 H   0  0  0  0  0  0  0  0  0  0  0  0
    3.4666   -2.8814    0.0000 H   0  0  0  0  0  0  0  0  0  0  0  0
    4.3161   -3.0985    0.0000 H   0  0  0  0  0  0  0  0  0  0  0  0
    4.5332   -2.2490    0.0000 H   0  0  0  0  0  0  0  0  0  0  0  0
    3.3161   -3.1101    0.0000 H   0  0  0  0  0  0  0  0  0  0  0  0
    8.0315    0.7542    0.0000 H   0  0  0  0  0  0  0  0  0  0  0  0
    8.6539    1.3718    0.0000 H   0  0  0  0  0  0  0  0  0  0  0  0
    8.0363    1.9942    0.0000 H   0  0  0  0  0  0  0  0  0  0  0  0
    8.1572    2.2398    0.0000 H   0  0  0  0  0  0  0  0  0  0  0  0
    7.3527    3.6458    0.0000 H   0  0  0  0  0  0  0  0  0  0  0  0
    6.4206    3.1125    0.0000 H   0  0  0  0  0  0  0  0  0  0  0  0
  1 18  2  0  0  0  0
  2  3  1  0  0  0  0
  2  4  1  0  0  0  0
  2  6  1  0  0  0  0
  2 13  1  0  0  0  0
  3  5  1  0  0  0  0
  3  7  1  0  0  0  0
  3 22  1  0  0  0  0
  4  8  1  0  0  0  0
  4 11  1  0  0  0  0
  4 23  1  0  0  0  0
  5  9  1  0  0  0  0
  5 17  1  0  0  0  0
  5 18  1  0  0  0  0
  6 10  1  0  0  0  0
  6 24  1  0  0  0  0
  6 25  1  0  0  0  0
  7 12  1  0  0  0  0
  7 26  1  0  0  0  0
  7 27  1  0  0  0  0
  8 12  1  0  0  0  0
  8 16  2  0  0  0  0
  9 10  1  0  0  0  0
  9 28  1  0  0  0  0
  9 29  1  0  0  0  0
 10 30  1  0  0  0  0
 10 31  1  0  0  0  0
 11 14  1  0  0  0  0
 11 32  1  0  0  0  0
 11 33  1  0  0  0  0
 12 34  1  0  0  0  0
 12 35  1  0  0  0  0
 13 36  1  0  0  0  0
 13 37  1  0  0  0  0
 13 38  1  0  0  0  0
 14 15  1  0  0  0  0
 14 39  1  0  0  0  0
 14 40  1  0  0  0  0
 15 16  1  0  0  0  0
 15 19  1  0  0  0  0
 15 20  1  0  0  0  0
 16 41  1  0  0  0  0
 17 42  1  0  0  0  0
 17 43  1  0  0  0  0
 17 44  1  0  0  0  0
 18 45  1  0  0  0  0
 19 46  1  0  0  0  0
 19 47  1  0  0  0  0
 19 48  1  0  0  0  0
 20 21  2  0  0  0  0
 20 49  1  0  0  0  0
 21 50  1  0  0  0  0
 21 51  1  0  0  0  0
M  END
> <PUBCHEM_COMPOUND_CID>
620819

> <PUBCHEM_COMPOUND_CANONICALIZED>
1

> <PUBCHEM_CACTVS_COMPLEXITY>
490

> <PUBCHEM_CACTVS_HBOND_ACCEPTOR>
1

> <PUBCHEM_CACTVS_HBOND_DONOR>
0

> <PUBCHEM_CACTVS_ROTATABLE_BOND>
2

> <PUBCHEM_CACTVS_SUBSKEYS>
AAADceB4IAAAAAAAAAAAAAAAAAAAAAAAAAAwYIAAAAAAAADAAAAAGgAAAAAADwCggAICAAAAAACIAihSgAAAAAAgAAAICAEAAAgAABIAAQAAAAAAgAAIAAMIiMCPgAAAAAAAAAAAAAQAACAAAAAAAAAAAA==

> <PUBCHEM_IUPAC_OPENEYE_NAME>
1,4a,7-trimethyl-7-vinyl-3,4,4b,5,6,9,10,10a-octahydro-2H-phenanthrene-1-carbaldehyde

> <PUBCHEM_IUPAC_CAS_NAME>
7-ethenyl-1,4a,7-trimethyl-3,4,4b,5,6,9,10,10a-octahydro-2H-phenanthrene-1-carboxaldehyde

> <PUBCHEM_IUPAC_NAME_MARKUP>
7-ethenyl-1,4<I>a</I>,7-trimethyl-3,4,4<I>b</I>,5,6,9,10,10<I>a</I>-octahydro-2<I>H</I>-phenanthrene-1-carbaldehyde

> <PUBCHEM_IUPAC_NAME>
7-ethenyl-1,4a,7-trimethyl-3,4,4b,5,6,9,10,10a-octahydro-2H-phenanthrene-1-carbaldehyde

> <PUBCHEM_IUPAC_SYSTEMATIC_NAME>
7-ethenyl-1,4a,7-trimethyl-3,4,4b,5,6,9,10,10a-octahydro-2H-phenanthrene-1-carbaldehyde

> <PUBCHEM_IUPAC_TRADITIONAL_NAME>
1,4a,7-trimethyl-7-vinyl-3,4,4b,5,6,9,10,10a-octahydro-2H-phenanthrene-1-carbaldehyde

> <PUBCHEM_IUPAC_INCHI>
InChI=1S/C20H30O/c1-5-18(2)12-9-16-15(13-18)7-8-17-19(3,14-21)10-6-11-20(16,17)4/h5,13-14,16-17H,1,6-12H2,2-4H3

> <PUBCHEM_IUPAC_INCHIKEY>
JKBKXKTXDKYEOR-UHFFFAOYSA-N

> <PUBCHEM_XLOGP3_AA>
5.5

> <PUBCHEM_EXACT_MASS>
286.229665576

> <PUBCHEM_MOLECULAR_FORMULA>
C20H30O

> <PUBCHEM_MOLECULAR_WEIGHT>
286.5

> <PUBCHEM_SMILES>
CC1(CCC2C(=C1)CCC3C2(CCCC3(C)C=O)C)C=C

> <PUBCHEM_CONNECTIVITY_SMILES>
CC1(CCC2C(=C1)CCC3C2(CCCC3(C)C=O)C)C=C

> <PUBCHEM_CACTVS_TPSA>
17.1

> <PUBCHEM_MONOISOTOPIC_WEIGHT>
286.229665576

> <PUBCHEM_TOTAL_CHARGE>
0

> <PUBCHEM_HEAVY_ATOM_COUNT>
21

> <PUBCHEM_ATOM_DEF_STEREO_COUNT>
0

> <PUBCHEM_ATOM_UDEF_STEREO_COUNT>
5

> <PUBCHEM_BOND_DEF_STEREO_COUNT>
0

> <PUBCHEM_BOND_UDEF_STEREO_COUNT>
0

> <PUBCHEM_ISOTOPIC_ATOM_COUNT>
0

> <PUBCHEM_COMPONENT_COUNT>
1

> <PUBCHEM_CACTVS_TAUTO_COUNT>
-1

> <PUBCHEM_COORDINATE_TYPE>
1
5
255

> <PUBCHEM_BONDANNOTATIONS>
15  19  3
2  13  3
3  7  3
4  11  3
5  17  3

$$$$
