622536
  -OEChem-05122609402D

 40 40  0     0  0  0  0  0  0999 V2000
    2.8660    0.7500    0.0000 Si  0  0  0  0  0  0  0  0  0  0  0  0
    7.1962   -1.7500    0.0000 Si  0  0  0  0  0  0  0  0  0  0  0  0
    3.7320    1.2500    0.0000 O   0  0  0  0  0  0  0  0  0  0  0  0
    7.1962   -0.7500    0.0000 O   0  0  0  0  0  0  0  0  0  0  0  0
    6.3301    2.7500    0.0000 O   0  0  0  0  0  0  0  0  0  0  0  0
    2.0000    0.2500    0.0000 C   0  0  0  0  0  0  0  0  0  0  0  0
    2.3660    1.6160    0.0000 C   0  0  0  0  0  0  0  0  0  0  0  0
    3.3660   -0.1160    0.0000 C   0  0  0  0  0  0  0  0  0  0  0  0
    7.1962   -2.7500    0.0000 C   0  0  0  0  0  0  0  0  0  0  0  0
    8.1962   -1.7500    0.0000 C   0  0  0  0  0  0  0  0  0  0  0  0
    6.1962   -1.7500    0.0000 C   0  0  0  0  0  0  0  0  0  0  0  0
    4.5981    0.7500    0.0000 C   0  0  0  0  0  0  0  0  0  0  0  0
    6.3301   -0.2500    0.0000 C   0  0  0  0  0  0  0  0  0  0  0  0
    5.4641    1.2500    0.0000 C   0  0  0  0  0  0  0  0  0  0  0  0
    6.3301    0.7500    0.0000 C   0  0  0  0  0  0  0  0  0  0  0  0
    4.5981   -0.2500    0.0000 C   0  0  0  0  0  0  0  0  0  0  0  0
    5.4641   -0.7500    0.0000 C   0  0  0  0  0  0  0  0  0  0  0  0
    5.4641    2.2500    0.0000 C   0  0  0  0  0  0  0  0  0  0  0  0
    1.6900    0.7869    0.0000 H   0  0  0  0  0  0  0  0  0  0  0  0
    1.4631   -0.0600    0.0000 H   0  0  0  0  0  0  0  0  0  0  0  0
    2.3100   -0.2869    0.0000 H   0  0  0  0  0  0  0  0  0  0  0  0
    2.9030    1.9260    0.0000 H   0  0  0  0  0  0  0  0  0  0  0  0
    2.0560    2.1530    0.0000 H   0  0  0  0  0  0  0  0  0  0  0  0
    1.8291    1.3060    0.0000 H   0  0  0  0  0  0  0  0  0  0  0  0
    2.8291   -0.4260    0.0000 H   0  0  0  0  0  0  0  0  0  0  0  0
    3.6760   -0.6530    0.0000 H   0  0  0  0  0  0  0  0  0  0  0  0
    3.9030    0.1940    0.0000 H   0  0  0  0  0  0  0  0  0  0  0  0
    6.5762   -2.7500    0.0000 H   0  0  0  0  0  0  0  0  0  0  0  0
    7.1962   -3.3700    0.0000 H   0  0  0  0  0  0  0  0  0  0  0  0
    7.8162   -2.7500    0.0000 H   0  0  0  0  0  0  0  0  0  0  0  0
    8.1962   -2.3700    0.0000 H   0  0  0  0  0  0  0  0  0  0  0  0
    8.8162   -1.7500    0.0000 H   0  0  0  0  0  0  0  0  0  0  0  0
    8.1962   -1.1300    0.0000 H   0  0  0  0  0  0  0  0  0  0  0  0
    6.1962   -1.1300    0.0000 H   0  0  0  0  0  0  0  0  0  0  0  0
    5.5762   -1.7500    0.0000 H   0  0  0  0  0  0  0  0  0  0  0  0
    6.1962   -2.3700    0.0000 H   0  0  0  0  0  0  0  0  0  0  0  0
    6.8671    1.0600    0.0000 H   0  0  0  0  0  0  0  0  0  0  0  0
    4.0611   -0.5600    0.0000 H   0  0  0  0  0  0  0  0  0  0  0  0
    5.4641   -1.3700    0.0000 H   0  0  0  0  0  0  0  0  0  0  0  0
    4.9272    2.5600    0.0000 H   0  0  0  0  0  0  0  0  0  0  0  0
  1  3  1  0  0  0  0
  1  6  1  0  0  0  0
  1  7  1  0  0  0  0
  1  8  1  0  0  0  0
  2  4  1  0  0  0  0
  2  9  1  0  0  0  0
  2 10  1  0  0  0  0
  2 11  1  0  0  0  0
  3 12  1  0  0  0  0
  4 13  1  0  0  0  0
  5 18  2  0  0  0  0
  6 19  1  0  0  0  0
  6 20  1  0  0  0  0
  6 21  1  0  0  0  0
  7 22  1  0  0  0  0
  7 23  1  0  0  0  0
  7 24  1  0  0  0  0
  8 25  1  0  0  0  0
  8 26  1  0  0  0  0
  8 27  1  0  0  0  0
  9 28  1  0  0  0  0
  9 29  1  0  0  0  0
  9 30  1  0  0  0  0
 10 31  1  0  0  0  0
 10 32  1  0  0  0  0
 10 33  1  0  0  0  0
 11 34  1  0  0  0  0
 11 35  1  0  0  0  0
 11 36  1  0  0  0  0
 12 14  2  0  0  0  0
 12 16  1  0  0  0  0
 13 15  2  0  0  0  0
 13 17  1  0  0  0  0
 14 15  1  0  0  0  0
 14 18  1  0  0  0  0
 15 37  1  0  0  0  0
 16 17  2  0  0  0  0
 16 38  1  0  0  0  0
 17 39  1  0  0  0  0
 18 40  1  0  0  0  0
M  END
> <PUBCHEM_COMPOUND_CID>
622536

> <PUBCHEM_COMPOUND_CANONICALIZED>
1

> <PUBCHEM_CACTVS_COMPLEXITY>
281

> <PUBCHEM_CACTVS_HBOND_ACCEPTOR>
3

> <PUBCHEM_CACTVS_HBOND_DONOR>
0

> <PUBCHEM_CACTVS_ROTATABLE_BOND>
5

> <PUBCHEM_CACTVS_SUBSKEYS>
AAADceBwMAwAAAAAAAAAAAAAAAAAAAAAAAAwAAAAAAAAAAABAAAAGhAAAEAADASgmAJyBoAAAAGIAihSgAACAAAkIAAIiAEGCMgIJjaAFRKAMUAk4BEIiYfKyDCOAQABAAAIAAACAAIAABAAAAAAAAAAAA==

> <PUBCHEM_IUPAC_OPENEYE_NAME>
2,5-bis(trimethylsilyloxy)benzaldehyde

> <PUBCHEM_IUPAC_CAS_NAME>
2,5-bis(trimethylsilyloxy)benzaldehyde

> <PUBCHEM_IUPAC_NAME_MARKUP>
2,5-bis(trimethylsilyloxy)benzaldehyde

> <PUBCHEM_IUPAC_NAME>
2,5-bis(trimethylsilyloxy)benzaldehyde

> <PUBCHEM_IUPAC_SYSTEMATIC_NAME>
2,5-bis(trimethylsilyloxy)benzaldehyde

> <PUBCHEM_IUPAC_TRADITIONAL_NAME>
2,5-bis(trimethylsilyloxy)benzaldehyde

> <PUBCHEM_IUPAC_INCHI>
InChI=1S/C13H22O3Si2/c1-17(2,3)15-12-7-8-13(11(9-12)10-14)16-18(4,5)6/h7-10H,1-6H3

> <PUBCHEM_IUPAC_INCHIKEY>
OGDNDISFPNBJNB-UHFFFAOYSA-N

> <PUBCHEM_EXACT_MASS>
282.11074763

> <PUBCHEM_MOLECULAR_FORMULA>
C13H22O3Si2

> <PUBCHEM_MOLECULAR_WEIGHT>
282.48

> <PUBCHEM_SMILES>
C[Si](C)(C)OC1=CC(=C(C=C1)O[Si](C)(C)C)C=O

> <PUBCHEM_CONNECTIVITY_SMILES>
C[Si](C)(C)OC1=CC(=C(C=C1)O[Si](C)(C)C)C=O

> <PUBCHEM_CACTVS_TPSA>
35.5

> <PUBCHEM_MONOISOTOPIC_WEIGHT>
282.11074763

> <PUBCHEM_TOTAL_CHARGE>
0

> <PUBCHEM_HEAVY_ATOM_COUNT>
18

> <PUBCHEM_ATOM_DEF_STEREO_COUNT>
0

> <PUBCHEM_ATOM_UDEF_STEREO_COUNT>
0

> <PUBCHEM_BOND_DEF_STEREO_COUNT>
0

> <PUBCHEM_BOND_UDEF_STEREO_COUNT>
0

> <PUBCHEM_ISOTOPIC_ATOM_COUNT>
0

> <PUBCHEM_COMPONENT_COUNT>
1

> <PUBCHEM_CACTVS_TAUTO_COUNT>
-1

> <PUBCHEM_COORDINATE_TYPE>
1
5
255

> <PUBCHEM_BONDANNOTATIONS>
12  14  8
12  16  8
13  15  8
13  17  8
14  15  8
16  17  8

$$$$
