62357
  -OEChem-05122608102D

 63 67  0     0  0  0  0  0  0999 V2000
    6.4532   -0.9533    0.0000 O   0  0  0  0  0  0  0  0  0  0  0  0
    7.2622    1.6345    0.0000 O   0  0  0  0  0  0  0  0  0  0  0  0
    6.1744   -2.7134    0.0000 O   0  0  0  0  0  0  0  0  0  0  0  0
   10.7923    1.6586    0.0000 N   0  0  0  0  0  0  0  0  0  0  0  0
    3.7320    1.6586    0.0000 N   0  0  0  0  0  0  0  0  0  0  0  0
    7.2622   -0.3655    0.0000 C   0  0  0  0  0  0  0  0  0  0  0  0
    8.1282    0.1345    0.0000 C   0  0  0  0  0  0  0  0  0  0  0  0
    6.3961    0.1345    0.0000 C   0  0  0  0  0  0  0  0  0  0  0  0
    8.0712   -0.9533    0.0000 C   0  0  0  0  0  0  0  0  0  0  0  0
    8.1282    1.1345    0.0000 C   0  0  0  0  0  0  0  0  0  0  0  0
    6.3961    1.1345    0.0000 C   0  0  0  0  0  0  0  0  0  0  0  0
    7.7622   -1.9044    0.0000 C   0  0  0  0  0  0  0  0  0  0  0  0
    9.0221   -0.4002    0.0000 C   0  0  0  0  0  0  0  0  0  0  0  0
    5.5022   -0.4002    0.0000 C   0  0  0  0  0  0  0  0  0  0  0  0
    6.7622   -1.9044    0.0000 C   0  0  0  0  0  0  0  0  0  0  0  0
    9.0667   -1.2599    0.0000 C   0  0  0  0  0  0  0  0  0  0  0  0
    9.0221    1.6692    0.0000 C   0  0  0  0  0  0  0  0  0  0  0  0
    5.5022    1.6692    0.0000 C   0  0  0  0  0  0  0  0  0  0  0  0
    9.9282    1.1553    0.0000 C   0  0  0  0  0  0  0  0  0  0  0  0
    4.5961    1.1553    0.0000 C   0  0  0  0  0  0  0  0  0  0  0  0
    9.9282    0.1137    0.0000 C   0  0  0  0  0  0  0  0  0  0  0  0
    4.5961    0.1137    0.0000 C   0  0  0  0  0  0  0  0  0  0  0  0
    7.9630   -2.9264    0.0000 C   0  0  0  0  0  0  0  0  0  0  0  0
    9.4358   -2.3710    0.0000 C   0  0  0  0  0  0  0  0  0  0  0  0
    8.8064   -3.1620    0.0000 C   0  0  0  0  0  0  0  0  0  0  0  0
   10.7884    2.6586    0.0000 C   0  0  0  0  0  0  0  0  0  0  0  0
   11.6602    1.1620    0.0000 C   0  0  0  0  0  0  0  0  0  0  0  0
    2.8641    1.1620    0.0000 C   0  0  0  0  0  0  0  0  0  0  0  0
    3.7359    2.6586    0.0000 C   0  0  0  0  0  0  0  0  0  0  0  0
   11.6525    3.1620    0.0000 C   0  0  0  0  0  0  0  0  0  0  0  0
   12.5243    1.6653    0.0000 C   0  0  0  0  0  0  0  0  0  0  0  0
    2.0000    1.6653    0.0000 C   0  0  0  0  0  0  0  0  0  0  0  0
    2.8718    3.1620    0.0000 C   0  0  0  0  0  0  0  0  0  0  0  0
    9.0150   -1.0201    0.0000 H   0  0  0  0  0  0  0  0  0  0  0  0
    5.5094   -1.0201    0.0000 H   0  0  0  0  0  0  0  0  0  0  0  0
    9.5002   -0.8167    0.0000 H   0  0  0  0  0  0  0  0  0  0  0  0
    9.0150    2.2891    0.0000 H   0  0  0  0  0  0  0  0  0  0  0  0
    5.5094    2.2891    0.0000 H   0  0  0  0  0  0  0  0  0  0  0  0
   10.4639   -0.1984    0.0000 H   0  0  0  0  0  0  0  0  0  0  0  0
    4.0604   -0.1984    0.0000 H   0  0  0  0  0  0  0  0  0  0  0  0
    7.5078   -3.3474    0.0000 H   0  0  0  0  0  0  0  0  0  0  0  0
   10.0463   -2.4794    0.0000 H   0  0  0  0  0  0  0  0  0  0  0  0
    8.9974   -3.7518    0.0000 H   0  0  0  0  0  0  0  0  0  0  0  0
   10.5741    3.2404    0.0000 H   0  0  0  0  0  0  0  0  0  0  0  0
   10.1783    2.5486    0.0000 H   0  0  0  0  0  0  0  0  0  0  0  0
   11.2635    0.6855    0.0000 H   0  0  0  0  0  0  0  0  0  0  0  0
   12.0606    0.6886    0.0000 H   0  0  0  0  0  0  0  0  0  0  0  0
    2.4637    0.6886    0.0000 H   0  0  0  0  0  0  0  0  0  0  0  0
    3.2608    0.6855    0.0000 H   0  0  0  0  0  0  0  0  0  0  0  0
    4.3461    2.5486    0.0000 H   0  0  0  0  0  0  0  0  0  0  0  0
    3.9502    3.2404    0.0000 H   0  0  0  0  0  0  0  0  0  0  0  0
   11.9646    2.6262    0.0000 H   0  0  0  0  0  0  0  0  0  0  0  0
   12.1883    3.4740    0.0000 H   0  0  0  0  0  0  0  0  0  0  0  0
   11.3405    3.6977    0.0000 H   0  0  0  0  0  0  0  0  0  0  0  0
   12.8364    1.1296    0.0000 H   0  0  0  0  0  0  0  0  0  0  0  0
   13.0601    1.9774    0.0000 H   0  0  0  0  0  0  0  0  0  0  0  0
   12.2123    2.2011    0.0000 H   0  0  0  0  0  0  0  0  0  0  0  0
    2.3121    2.2011    0.0000 H   0  0  0  0  0  0  0  0  0  0  0  0
    1.4643    1.9774    0.0000 H   0  0  0  0  0  0  0  0  0  0  0  0
    1.6879    1.1296    0.0000 H   0  0  0  0  0  0  0  0  0  0  0  0
    3.1839    3.6977    0.0000 H   0  0  0  0  0  0  0  0  0  0  0  0
    2.3361    3.4740    0.0000 H   0  0  0  0  0  0  0  0  0  0  0  0
    2.5597    2.6262    0.0000 H   0  0  0  0  0  0  0  0  0  0  0  0
  1  6  1  0  0  0  0
  1 15  1  0  0  0  0
  2 10  1  0  0  0  0
  2 11  1  0  0  0  0
  3 15  2  0  0  0  0
  4 19  1  0  0  0  0
  4 26  1  0  0  0  0
  4 27  1  0  0  0  0
  5 20  1  0  0  0  0
  5 28  1  0  0  0  0
  5 29  1  0  0  0  0
  6  7  1  0  0  0  0
  6  8  1  0  0  0  0
  6  9  1  0  0  0  0
  7 10  2  0  0  0  0
  7 13  1  0  0  0  0
  8 11  2  0  0  0  0
  8 14  1  0  0  0  0
  9 12  1  0  0  0  0
  9 16  2  0  0  0  0
 10 17  1  0  0  0  0
 11 18  1  0  0  0  0
 12 15  1  0  0  0  0
 12 23  2  0  0  0  0
 13 21  2  0  0  0  0
 13 34  1  0  0  0  0
 14 22  2  0  0  0  0
 14 35  1  0  0  0  0
 16 24  1  0  0  0  0
 16 36  1  0  0  0  0
 17 19  2  0  0  0  0
 17 37  1  0  0  0  0
 18 20  2  0  0  0  0
 18 38  1  0  0  0  0
 19 21  1  0  0  0  0
 20 22  1  0  0  0  0
 21 39  1  0  0  0  0
 22 40  1  0  0  0  0
 23 25  1  0  0  0  0
 23 41  1  0  0  0  0
 24 25  2  0  0  0  0
 24 42  1  0  0  0  0
 25 43  1  0  0  0  0
 26 30  1  0  0  0  0
 26 44  1  0  0  0  0
 26 45  1  0  0  0  0
 27 31  1  0  0  0  0
 27 46  1  0  0  0  0
 27 47  1  0  0  0  0
 28 32  1  0  0  0  0
 28 48  1  0  0  0  0
 28 49  1  0  0  0  0
 29 33  1  0  0  0  0
 29 50  1  0  0  0  0
 29 51  1  0  0  0  0
 30 52  1  0  0  0  0
 30 53  1  0  0  0  0
 30 54  1  0  0  0  0
 31 55  1  0  0  0  0
 31 56  1  0  0  0  0
 31 57  1  0  0  0  0
 32 58  1  0  0  0  0
 32 59  1  0  0  0  0
 32 60  1  0  0  0  0
 33 61  1  0  0  0  0
 33 62  1  0  0  0  0
 33 63  1  0  0  0  0
M  END
> <PUBCHEM_COMPOUND_CID>
62357

> <PUBCHEM_COMPOUND_CANONICALIZED>
1

> <PUBCHEM_CACTVS_COMPLEXITY>
655

> <PUBCHEM_CACTVS_HBOND_ACCEPTOR>
5

> <PUBCHEM_CACTVS_HBOND_DONOR>
0

> <PUBCHEM_CACTVS_ROTATABLE_BOND>
6

> <PUBCHEM_CACTVS_SUBSKEYS>
AAADceB7MAAAAAAAAAAAAAAAAAAAASAAAAA0YMEAAAAAAEiRUAAAHgAAAAAADEzBmAQyzoMABACIAiTSSACCCAAlIgAIiAEObMgMJzLEtZuGOSjnwBnI6Yea2POOiAAAAgAYAAAQAAAEADAAAAAAAAAAAA==

> <PUBCHEM_IUPAC_OPENEYE_NAME>
3',6'-bis(diethylamino)spiro[isobenzofuran-3,9'-xanthene]-1-one

> <PUBCHEM_IUPAC_CAS_NAME>
3',6'-bis(diethylamino)-1-spiro[isobenzofuran-3,9'-xanthene]one

> <PUBCHEM_IUPAC_NAME_MARKUP>
3&apos;,6&apos;-bis(diethylamino)spiro[2-benzofuran-3,9&apos;-xanthene]-1-one

> <PUBCHEM_IUPAC_NAME>
3',6'-bis(diethylamino)spiro[2-benzofuran-3,9'-xanthene]-1-one

> <PUBCHEM_IUPAC_SYSTEMATIC_NAME>
3',6'-bis(diethylamino)spiro[2-benzofuran-3,9'-xanthene]-1-one

> <PUBCHEM_IUPAC_TRADITIONAL_NAME>
3',6'-bis(diethylamino)spiro[phthalan-3,9'-xanthene]-1-one

> <PUBCHEM_IUPAC_INCHI>
InChI=1S/C28H30N2O3/c1-5-29(6-2)19-13-15-23-25(17-19)32-26-18-20(30(7-3)8-4)14-16-24(26)28(23)22-12-10-9-11-21(22)27(31)33-28/h9-18H,5-8H2,1-4H3

> <PUBCHEM_IUPAC_INCHIKEY>
DZNJMLVCIZGWSC-UHFFFAOYSA-N

> <PUBCHEM_XLOGP3_AA>
5.8

> <PUBCHEM_EXACT_MASS>
442.22564282

> <PUBCHEM_MOLECULAR_FORMULA>
C28H30N2O3

> <PUBCHEM_MOLECULAR_WEIGHT>
442.5

> <PUBCHEM_SMILES>
CCN(CC)C1=CC2=C(C=C1)C3(C4=C(O2)C=C(C=C4)N(CC)CC)C5=CC=CC=C5C(=O)O3

> <PUBCHEM_CONNECTIVITY_SMILES>
CCN(CC)C1=CC2=C(C=C1)C3(C4=C(O2)C=C(C=C4)N(CC)CC)C5=CC=CC=C5C(=O)O3

> <PUBCHEM_CACTVS_TPSA>
42

> <PUBCHEM_MONOISOTOPIC_WEIGHT>
442.22564282

> <PUBCHEM_TOTAL_CHARGE>
0

> <PUBCHEM_HEAVY_ATOM_COUNT>
33

> <PUBCHEM_ATOM_DEF_STEREO_COUNT>
0

> <PUBCHEM_ATOM_UDEF_STEREO_COUNT>
0

> <PUBCHEM_BOND_DEF_STEREO_COUNT>
0

> <PUBCHEM_BOND_UDEF_STEREO_COUNT>
0

> <PUBCHEM_ISOTOPIC_ATOM_COUNT>
0

> <PUBCHEM_COMPONENT_COUNT>
1

> <PUBCHEM_CACTVS_TAUTO_COUNT>
-1

> <PUBCHEM_COORDINATE_TYPE>
1
5
255

> <PUBCHEM_BONDANNOTATIONS>
10  17  8
11  18  8
12  23  8
13  21  8
14  22  8
16  24  8
17  19  8
18  20  8
19  21  8
20  22  8
23  25  8
24  25  8
7  10  8
7  13  8
8  11  8
8  14  8
9  12  8
9  16  8

$$$$
