6242671
  -OEChem-05122608462D

 57 56  0     0  0  0  0  0  0999 V2000
    9.7942   -0.8100    0.0000 C   0  0  0  0  0  0  0  0  0  0  0  0
    9.7942    0.1900    0.0000 C   0  0  0  0  0  0  0  0  0  0  0  0
   10.6603   -1.3100    0.0000 C   0  0  0  0  0  0  0  0  0  0  0  0
    8.9282    0.6900    0.0000 C   0  0  0  0  0  0  0  0  0  0  0  0
   10.6603   -2.3100    0.0000 C   0  0  0  0  0  0  0  0  0  0  0  0
    3.7320    3.6900    0.0000 C   0  0  0  0  0  0  0  0  0  0  0  0
    8.9282    1.6900    0.0000 C   0  0  0  0  0  0  0  0  0  0  0  0
    4.5981    3.1900    0.0000 C   0  0  0  0  0  0  0  0  0  0  0  0
    2.8660    3.1900    0.0000 C   0  0  0  0  0  0  0  0  0  0  0  0
    5.4641    3.6900    0.0000 C   0  0  0  0  0  0  0  0  0  0  0  0
   11.5263   -2.8100    0.0000 C   0  0  0  0  0  0  0  0  0  0  0  0
    8.0622    2.1900    0.0000 C   0  0  0  0  0  0  0  0  0  0  0  0
    6.3301    3.1900    0.0000 C   0  0  0  0  0  0  0  0  0  0  0  0
   11.5263   -3.8100    0.0000 C   0  0  0  0  0  0  0  0  0  0  0  0
    2.0000    3.6900    0.0000 C   0  0  0  0  0  0  0  0  0  0  0  0
    2.8660    2.1900    0.0000 C   0  0  0  0  0  0  0  0  0  0  0  0
    8.0622    3.1900    0.0000 C   0  0  0  0  0  0  0  0  0  0  0  0
    7.1962    3.6900    0.0000 C   0  0  0  0  0  0  0  0  0  0  0  0
   12.3923   -4.3100    0.0000 C   0  0  0  0  0  0  0  0  0  0  0  0
    9.1836   -0.7023    0.0000 H   0  0  0  0  0  0  0  0  0  0  0  0
    9.5822   -1.3926    0.0000 H   0  0  0  0  0  0  0  0  0  0  0  0
   10.4048    0.0823    0.0000 H   0  0  0  0  0  0  0  0  0  0  0  0
   10.0063    0.7726    0.0000 H   0  0  0  0  0  0  0  0  0  0  0  0
   11.2708   -1.4177    0.0000 H   0  0  0  0  0  0  0  0  0  0  0  0
   10.8723   -0.7274    0.0000 H   0  0  0  0  0  0  0  0  0  0  0  0
    8.3176    0.7977    0.0000 H   0  0  0  0  0  0  0  0  0  0  0  0
    8.7162    0.1074    0.0000 H   0  0  0  0  0  0  0  0  0  0  0  0
   10.0497   -2.2023    0.0000 H   0  0  0  0  0  0  0  0  0  0  0  0
   10.4482   -2.8926    0.0000 H   0  0  0  0  0  0  0  0  0  0  0  0
    4.1306    4.1650    0.0000 H   0  0  0  0  0  0  0  0  0  0  0  0
    3.3335    4.1650    0.0000 H   0  0  0  0  0  0  0  0  0  0  0  0
    9.5388    1.5823    0.0000 H   0  0  0  0  0  0  0  0  0  0  0  0
    9.1403    2.2726    0.0000 H   0  0  0  0  0  0  0  0  0  0  0  0
    4.1996    2.7151    0.0000 H   0  0  0  0  0  0  0  0  0  0  0  0
    4.9966    2.7151    0.0000 H   0  0  0  0  0  0  0  0  0  0  0  0
    2.8660    3.8100    0.0000 H   0  0  0  0  0  0  0  0  0  0  0  0
    5.8626    4.1650    0.0000 H   0  0  0  0  0  0  0  0  0  0  0  0
    5.0656    4.1650    0.0000 H   0  0  0  0  0  0  0  0  0  0  0  0
   12.1369   -2.9177    0.0000 H   0  0  0  0  0  0  0  0  0  0  0  0
   11.7383   -2.2274    0.0000 H   0  0  0  0  0  0  0  0  0  0  0  0
    7.4516    2.2977    0.0000 H   0  0  0  0  0  0  0  0  0  0  0  0
    7.8501    1.6074    0.0000 H   0  0  0  0  0  0  0  0  0  0  0  0
    5.9316    2.7151    0.0000 H   0  0  0  0  0  0  0  0  0  0  0  0
    6.7287    2.7151    0.0000 H   0  0  0  0  0  0  0  0  0  0  0  0
   10.9157   -3.7023    0.0000 H   0  0  0  0  0  0  0  0  0  0  0  0
   11.3142   -4.3926    0.0000 H   0  0  0  0  0  0  0  0  0  0  0  0
    2.3100    4.2269    0.0000 H   0  0  0  0  0  0  0  0  0  0  0  0
    1.4631    4.0000    0.0000 H   0  0  0  0  0  0  0  0  0  0  0  0
    1.6900    3.1531    0.0000 H   0  0  0  0  0  0  0  0  0  0  0  0
    2.2460    2.1900    0.0000 H   0  0  0  0  0  0  0  0  0  0  0  0
    2.8660    1.5700    0.0000 H   0  0  0  0  0  0  0  0  0  0  0  0
    3.4860    2.1900    0.0000 H   0  0  0  0  0  0  0  0  0  0  0  0
    8.5991    3.5000    0.0000 H   0  0  0  0  0  0  0  0  0  0  0  0
    7.1962    4.3100    0.0000 H   0  0  0  0  0  0  0  0  0  0  0  0
   12.0823   -4.8469    0.0000 H   0  0  0  0  0  0  0  0  0  0  0  0
   12.9292   -4.6200    0.0000 H   0  0  0  0  0  0  0  0  0  0  0  0
   12.7023   -3.7731    0.0000 H   0  0  0  0  0  0  0  0  0  0  0  0
  1  2  1  0  0  0  0
  1  3  1  0  0  0  0
  1 20  1  0  0  0  0
  1 21  1  0  0  0  0
  2  4  1  0  0  0  0
  2 22  1  0  0  0  0
  2 23  1  0  0  0  0
  3  5  1  0  0  0  0
  3 24  1  0  0  0  0
  3 25  1  0  0  0  0
  4  7  1  0  0  0  0
  4 26  1  0  0  0  0
  4 27  1  0  0  0  0
  5 11  1  0  0  0  0
  5 28  1  0  0  0  0
  5 29  1  0  0  0  0
  6  8  1  0  0  0  0
  6  9  1  0  0  0  0
  6 30  1  0  0  0  0
  6 31  1  0  0  0  0
  7 12  1  0  0  0  0
  7 32  1  0  0  0  0
  7 33  1  0  0  0  0
  8 10  1  0  0  0  0
  8 34  1  0  0  0  0
  8 35  1  0  0  0  0
  9 15  1  0  0  0  0
  9 16  1  0  0  0  0
  9 36  1  0  0  0  0
 10 13  1  0  0  0  0
 10 37  1  0  0  0  0
 10 38  1  0  0  0  0
 11 14  1  0  0  0  0
 11 39  1  0  0  0  0
 11 40  1  0  0  0  0
 12 17  1  0  0  0  0
 12 41  1  0  0  0  0
 12 42  1  0  0  0  0
 13 18  1  0  0  0  0
 13 43  1  0  0  0  0
 13 44  1  0  0  0  0
 14 19  1  0  0  0  0
 14 45  1  0  0  0  0
 14 46  1  0  0  0  0
 15 47  1  0  0  0  0
 15 48  1  0  0  0  0
 15 49  1  0  0  0  0
 16 50  1  0  0  0  0
 16 51  1  0  0  0  0
 16 52  1  0  0  0  0
 17 18  2  0  0  0  0
 17 53  1  0  0  0  0
 18 54  1  0  0  0  0
 19 55  1  0  0  0  0
 19 56  1  0  0  0  0
 19 57  1  0  0  0  0
M  END
> <PUBCHEM_COMPOUND_CID>
6242671

> <PUBCHEM_COMPOUND_CANONICALIZED>
1

> <PUBCHEM_CACTVS_COMPLEXITY>
178

> <PUBCHEM_CACTVS_HBOND_ACCEPTOR>
0

> <PUBCHEM_CACTVS_HBOND_DONOR>
0

> <PUBCHEM_CACTVS_ROTATABLE_BOND>
14

> <PUBCHEM_CACTVS_SUBSKEYS>
AAADcfB4AAAAAAAAAAAAAAAAAAAAAAAAAAAAAAAAAAAAAAAAAAAAGAAAAAAADQCAAAACAAAAAACAACBCAAAAAAAgAAAICAAAAAgAAAIAAQAAAAAAgAAIAAMAgMAMAAAAAAAAAAAAAAAAAAAAAAAAAAAAAA==

> <PUBCHEM_IUPAC_OPENEYE_NAME>
(Z)-2-methyloctadec-7-ene

> <PUBCHEM_IUPAC_CAS_NAME>
(Z)-2-methyl-7-octadecene

> <PUBCHEM_IUPAC_NAME_MARKUP>
(<I>Z</I>)-2-methyloctadec-7-ene

> <PUBCHEM_IUPAC_NAME>
(Z)-2-methyloctadec-7-ene

> <PUBCHEM_IUPAC_SYSTEMATIC_NAME>
(Z)-2-methyloctadec-7-ene

> <PUBCHEM_IUPAC_TRADITIONAL_NAME>
(Z)-2-methyloctadec-7-ene

> <PUBCHEM_IUPAC_INCHI>
InChI=1S/C19H38/c1-4-5-6-7-8-9-10-11-12-13-14-15-16-17-18-19(2)3/h13-14,19H,4-12,15-18H2,1-3H3/b14-13-

> <PUBCHEM_IUPAC_INCHIKEY>
XDBKLFODBADBED-YPKPFQOOSA-N

> <PUBCHEM_XLOGP3_AA>
9.3

> <PUBCHEM_EXACT_MASS>
266.297351212

> <PUBCHEM_MOLECULAR_FORMULA>
C19H38

> <PUBCHEM_MOLECULAR_WEIGHT>
266.5

> <PUBCHEM_SMILES>
CCCCCCCCCC/C=C\CCCCC(C)C

> <PUBCHEM_CONNECTIVITY_SMILES>
CCCCCCCCCCC=CCCCCC(C)C

> <PUBCHEM_CACTVS_TPSA>
0

> <PUBCHEM_MONOISOTOPIC_WEIGHT>
266.297351212

> <PUBCHEM_TOTAL_CHARGE>
0

> <PUBCHEM_HEAVY_ATOM_COUNT>
19

> <PUBCHEM_ATOM_DEF_STEREO_COUNT>
0

> <PUBCHEM_ATOM_UDEF_STEREO_COUNT>
0

> <PUBCHEM_BOND_DEF_STEREO_COUNT>
1

> <PUBCHEM_BOND_UDEF_STEREO_COUNT>
0

> <PUBCHEM_ISOTOPIC_ATOM_COUNT>
0

> <PUBCHEM_COMPONENT_COUNT>
1

> <PUBCHEM_CACTVS_TAUTO_COUNT>
-1

> <PUBCHEM_COORDINATE_TYPE>
1
5
255

$$$$
