62753
  -OEChem-05122608152D

 51 52  0     1  0  0  0  0  0999 V2000
    5.4641    3.0000    0.0000 Br  0  0  0  0  0  0  0  0  0  0  0  0
    2.0000   -3.0000    0.0000 Br  0  0  0  0  0  0  0  0  0  0  0  0
    2.0000    3.0000    0.0000 Br  0  0  0  0  0  0  0  0  0  0  0  0
    5.4641   -3.0000    0.0000 Br  0  0  0  0  0  0  0  0  0  0  0  0
    3.7321    6.0000    0.0000 Br  0  0  0  0  0  0  0  0  0  0  0  0
    3.7321   -6.0000    0.0000 Br  0  0  0  0  0  0  0  0  0  0  0  0
    5.4641    7.0000    0.0000 Br  0  0  0  0  0  0  0  0  0  0  0  0
    2.0000   -7.0000    0.0000 Br  0  0  0  0  0  0  0  0  0  0  0  0
    3.7321    4.0000    0.0000 O   0  0  0  0  0  0  0  0  0  0  0  0
    3.7321   -4.0000    0.0000 O   0  0  0  0  0  0  0  0  0  0  0  0
    3.7321    0.0000    0.0000 C   0  0  0  0  0  0  0  0  0  0  0  0
    3.7321    1.0000    0.0000 C   0  0  0  0  0  0  0  0  0  0  0  0
    3.7321   -1.0000    0.0000 C   0  0  0  0  0  0  0  0  0  0  0  0
    4.7321    0.0000    0.0000 C   0  0  0  0  0  0  0  0  0  0  0  0
    2.7321    0.0000    0.0000 C   0  0  0  0  0  0  0  0  0  0  0  0
    2.8660    1.5000    0.0000 C   0  0  0  0  0  0  0  0  0  0  0  0
    4.5981   -1.5000    0.0000 C   0  0  0  0  0  0  0  0  0  0  0  0
    4.5981    1.5000    0.0000 C   0  0  0  0  0  0  0  0  0  0  0  0
    2.8660   -1.5000    0.0000 C   0  0  0  0  0  0  0  0  0  0  0  0
    4.5981    2.5000    0.0000 C   0  0  0  0  0  0  0  0  0  0  0  0
    2.8660   -2.5000    0.0000 C   0  0  0  0  0  0  0  0  0  0  0  0
    2.8660    2.5000    0.0000 C   0  0  0  0  0  0  0  0  0  0  0  0
    4.5981   -2.5000    0.0000 C   0  0  0  0  0  0  0  0  0  0  0  0
    3.7321    3.0000    0.0000 C   0  0  0  0  0  0  0  0  0  0  0  0
    3.7321   -3.0000    0.0000 C   0  0  0  0  0  0  0  0  0  0  0  0
    4.5981    4.5000    0.0000 C   0  0  0  0  0  0  0  0  0  0  0  0
    2.8660   -4.5000    0.0000 C   0  0  0  0  0  0  0  0  0  0  0  0
    4.5981    5.5000    0.0000 C   0  0  3  0  0  0  0  0  0  0  0  0
    2.8660   -5.5000    0.0000 C   0  0  3  0  0  0  0  0  0  0  0  0
    5.4641    6.0000    0.0000 C   0  0  0  0  0  0  0  0  0  0  0  0
    2.0000   -6.0000    0.0000 C   0  0  0  0  0  0  0  0  0  0  0  0
    4.7321   -0.6200    0.0000 H   0  0  0  0  0  0  0  0  0  0  0  0
    5.3521    0.0000    0.0000 H   0  0  0  0  0  0  0  0  0  0  0  0
    4.7321    0.6200    0.0000 H   0  0  0  0  0  0  0  0  0  0  0  0
    2.7321    0.6200    0.0000 H   0  0  0  0  0  0  0  0  0  0  0  0
    2.1121    0.0000    0.0000 H   0  0  0  0  0  0  0  0  0  0  0  0
    2.7321   -0.6200    0.0000 H   0  0  0  0  0  0  0  0  0  0  0  0
    2.3291    1.1900    0.0000 H   0  0  0  0  0  0  0  0  0  0  0  0
    5.1350   -1.1900    0.0000 H   0  0  0  0  0  0  0  0  0  0  0  0
    5.1350    1.1900    0.0000 H   0  0  0  0  0  0  0  0  0  0  0  0
    2.3291   -1.1900    0.0000 H   0  0  0  0  0  0  0  0  0  0  0  0
    4.8101    3.9174    0.0000 H   0  0  0  0  0  0  0  0  0  0  0  0
    5.2087    4.6077    0.0000 H   0  0  0  0  0  0  0  0  0  0  0  0
    2.6540   -3.9174    0.0000 H   0  0  0  0  0  0  0  0  0  0  0  0
    2.2554   -4.6077    0.0000 H   0  0  0  0  0  0  0  0  0  0  0  0
    4.5981    6.1200    0.0000 H   0  0  0  0  0  0  0  0  0  0  0  0
    2.8660   -6.1200    0.0000 H   0  0  0  0  0  0  0  0  0  0  0  0
    5.6762    5.4174    0.0000 H   0  0  0  0  0  0  0  0  0  0  0  0
    6.0747    6.1077    0.0000 H   0  0  0  0  0  0  0  0  0  0  0  0
    1.7880   -5.4174    0.0000 H   0  0  0  0  0  0  0  0  0  0  0  0
    1.3894   -6.1077    0.0000 H   0  0  0  0  0  0  0  0  0  0  0  0
  1 20  1  0  0  0  0
  2 21  1  0  0  0  0
  3 22  1  0  0  0  0
  4 23  1  0  0  0  0
  5 28  1  0  0  0  0
  6 29  1  0  0  0  0
  7 30  1  0  0  0  0
  8 31  1  0  0  0  0
  9 24  1  0  0  0  0
  9 26  1  0  0  0  0
 10 25  1  0  0  0  0
 10 27  1  0  0  0  0
 11 12  1  0  0  0  0
 11 13  1  0  0  0  0
 11 14  1  0  0  0  0
 11 15  1  0  0  0  0
 12 16  2  0  0  0  0
 12 18  1  0  0  0  0
 13 17  2  0  0  0  0
 13 19  1  0  0  0  0
 14 32  1  0  0  0  0
 14 33  1  0  0  0  0
 14 34  1  0  0  0  0
 15 35  1  0  0  0  0
 15 36  1  0  0  0  0
 15 37  1  0  0  0  0
 16 22  1  0  0  0  0
 16 38  1  0  0  0  0
 17 23  1  0  0  0  0
 17 39  1  0  0  0  0
 18 20  2  0  0  0  0
 18 40  1  0  0  0  0
 19 21  2  0  0  0  0
 19 41  1  0  0  0  0
 20 24  1  0  0  0  0
 21 25  1  0  0  0  0
 22 24  2  0  0  0  0
 23 25  2  0  0  0  0
 26 28  1  0  0  0  0
 26 42  1  0  0  0  0
 26 43  1  0  0  0  0
 27 29  1  0  0  0  0
 27 44  1  0  0  0  0
 27 45  1  0  0  0  0
 28 30  1  0  0  0  0
 28 46  1  0  0  0  0
 29 31  1  0  0  0  0
 29 47  1  0  0  0  0
 30 48  1  0  0  0  0
 30 49  1  0  0  0  0
 31 50  1  0  0  0  0
 31 51  1  0  0  0  0
M  END
> <PUBCHEM_COMPOUND_CID>
62753

> <PUBCHEM_COMPOUND_CANONICALIZED>
1

> <PUBCHEM_CACTVS_COMPLEXITY>
472

> <PUBCHEM_CACTVS_HBOND_ACCEPTOR>
2

> <PUBCHEM_CACTVS_HBOND_DONOR>
0

> <PUBCHEM_CACTVS_ROTATABLE_BOND>
10

> <PUBCHEM_CACTVS_SUBSKEYS>
AAADceB4MAAAHAAAAAAAAAAAAAAAAAAAAAAwYAAAAAAAAAABQAAAGgBAAAAB7gSgmAIyBoAABACAAiBCAAACCAAgIAQAiAAECKgMJiKEMRqCOCCkwBEIqheAwPAPoAAAEAAgBABAAAAgAEAIAAAAAAAAAA==

> <PUBCHEM_IUPAC_OPENEYE_NAME>
1,3-dibromo-5-[1-[3,5-dibromo-4-(2,3-dibromopropoxy)phenyl]-1-methyl-ethyl]-2-(2,3-dibromopropoxy)benzene

> <PUBCHEM_IUPAC_CAS_NAME>
1,3-dibromo-5-[2-[3,5-dibromo-4-(2,3-dibromopropoxy)phenyl]propan-2-yl]-2-(2,3-dibromopropoxy)benzene

> <PUBCHEM_IUPAC_NAME_MARKUP>
1,3-dibromo-5-[2-[3,5-dibromo-4-(2,3-dibromopropoxy)phenyl]propan-2-yl]-2-(2,3-dibromopropoxy)benzene

> <PUBCHEM_IUPAC_NAME>
1,3-dibromo-5-[2-[3,5-dibromo-4-(2,3-dibromopropoxy)phenyl]propan-2-yl]-2-(2,3-dibromopropoxy)benzene

> <PUBCHEM_IUPAC_SYSTEMATIC_NAME>
2-[2,3-bis(bromanyl)propoxy]-5-[2-[4-[2,3-bis(bromanyl)propoxy]-3,5-bis(bromanyl)phenyl]propan-2-yl]-1,3-bis(bromanyl)benzene

> <PUBCHEM_IUPAC_TRADITIONAL_NAME>
1,3-dibromo-5-[1-[3,5-dibromo-4-(2,3-dibromopropoxy)phenyl]-1-methyl-ethyl]-2-(2,3-dibromopropoxy)benzene

> <PUBCHEM_IUPAC_INCHI>
InChI=1S/C21H20Br8O2/c1-21(2,11-3-15(26)19(16(27)4-11)30-9-13(24)7-22)12-5-17(28)20(18(29)6-12)31-10-14(25)8-23/h3-6,13-14H,7-10H2,1-2H3

> <PUBCHEM_IUPAC_INCHIKEY>
LXIZRZRTWSDLKK-UHFFFAOYSA-N

> <PUBCHEM_XLOGP3_AA>
10.6

> <PUBCHEM_EXACT_MASS>
943.48483

> <PUBCHEM_MOLECULAR_FORMULA>
C21H20Br8O2

> <PUBCHEM_MOLECULAR_WEIGHT>
943.6

> <PUBCHEM_SMILES>
CC(C)(C1=CC(=C(C(=C1)Br)OCC(CBr)Br)Br)C2=CC(=C(C(=C2)Br)OCC(CBr)Br)Br

> <PUBCHEM_CONNECTIVITY_SMILES>
CC(C)(C1=CC(=C(C(=C1)Br)OCC(CBr)Br)Br)C2=CC(=C(C(=C2)Br)OCC(CBr)Br)Br

> <PUBCHEM_CACTVS_TPSA>
18.5

> <PUBCHEM_MONOISOTOPIC_WEIGHT>
935.49303

> <PUBCHEM_TOTAL_CHARGE>
0

> <PUBCHEM_HEAVY_ATOM_COUNT>
31

> <PUBCHEM_ATOM_DEF_STEREO_COUNT>
0

> <PUBCHEM_ATOM_UDEF_STEREO_COUNT>
2

> <PUBCHEM_BOND_DEF_STEREO_COUNT>
0

> <PUBCHEM_BOND_UDEF_STEREO_COUNT>
0

> <PUBCHEM_ISOTOPIC_ATOM_COUNT>
0

> <PUBCHEM_COMPONENT_COUNT>
1

> <PUBCHEM_CACTVS_TAUTO_COUNT>
-1

> <PUBCHEM_COORDINATE_TYPE>
1
5
255

> <PUBCHEM_BONDANNOTATIONS>
12  16  8
12  18  8
13  17  8
13  19  8
16  22  8
17  23  8
18  20  8
19  21  8
20  24  8
21  25  8
22  24  8
23  25  8
28  5  3
29  6  3

$$$$
