628435
  -OEChem-05122610022D

 39 41  0     0  0  0  0  0  0999 V2000
    6.3981    1.7450    0.0000 O   0  0  0  0  0  0  0  0  0  0  0  0
    4.6497    1.7796    0.0000 O   0  0  0  0  0  0  0  0  0  0  0  0
    8.1465    1.7796    0.0000 O   0  0  0  0  0  0  0  0  0  0  0  0
    8.1465   -2.2896    0.0000 O   0  0  0  0  0  0  0  0  0  0  0  0
    2.8680   -1.2791    0.0000 O   0  0  0  0  0  0  0  0  0  0  0  0
    7.2641    0.2450    0.0000 C   0  0  0  0  0  0  0  0  0  0  0  0
    7.2641   -0.7550    0.0000 C   0  0  0  0  0  0  0  0  0  0  0  0
    5.5320    0.2450    0.0000 C   0  0  0  0  0  0  0  0  0  0  0  0
    5.5320   -0.7550    0.0000 C   0  0  0  0  0  0  0  0  0  0  0  0
    6.3981    0.7450    0.0000 C   0  0  0  0  0  0  0  0  0  0  0  0
    6.3981   -1.2550    0.0000 C   0  0  0  0  0  0  0  0  0  0  0  0
    9.0641    0.2658    0.0000 C   0  0  0  0  0  0  0  0  0  0  0  0
    9.0641   -0.7758    0.0000 C   0  0  0  0  0  0  0  0  0  0  0  0
    8.1580    0.7797    0.0000 C   0  0  0  0  0  0  0  0  0  0  0  0
    8.1580   -1.2896    0.0000 C   0  0  0  0  0  0  0  0  0  0  0  0
    4.6381    0.7797    0.0000 C   0  0  0  0  0  0  0  0  0  0  0  0
    4.6381   -1.2896    0.0000 C   0  0  0  0  0  0  0  0  0  0  0  0
    3.7320   -0.7758    0.0000 C   0  0  0  0  0  0  0  0  0  0  0  0
    3.7320    0.2658    0.0000 C   0  0  0  0  0  0  0  0  0  0  0  0
    9.9282    0.7692    0.0000 C   0  0  0  0  0  0  0  0  0  0  0  0
    9.9282   -1.2791    0.0000 C   0  0  0  0  0  0  0  0  0  0  0  0
    3.7895    2.2896    0.0000 C   0  0  0  0  0  0  0  0  0  0  0  0
    2.0000   -0.7825    0.0000 C   0  0  0  0  0  0  0  0  0  0  0  0
    6.3981   -1.8750    0.0000 H   0  0  0  0  0  0  0  0  0  0  0  0
    4.6453   -1.9096    0.0000 H   0  0  0  0  0  0  0  0  0  0  0  0
    3.1963    0.5779    0.0000 H   0  0  0  0  0  0  0  0  0  0  0  0
   10.2403    0.2334    0.0000 H   0  0  0  0  0  0  0  0  0  0  0  0
   10.4639    1.0812    0.0000 H   0  0  0  0  0  0  0  0  0  0  0  0
    9.6161    1.3049    0.0000 H   0  0  0  0  0  0  0  0  0  0  0  0
    9.6161   -1.8149    0.0000 H   0  0  0  0  0  0  0  0  0  0  0  0
   10.4639   -1.5912    0.0000 H   0  0  0  0  0  0  0  0  0  0  0  0
   10.2403   -0.7434    0.0000 H   0  0  0  0  0  0  0  0  0  0  0  0
    5.8611    2.0550    0.0000 H   0  0  0  0  0  0  0  0  0  0  0  0
    4.1057    2.8229    0.0000 H   0  0  0  0  0  0  0  0  0  0  0  0
    3.2562    2.6058    0.0000 H   0  0  0  0  0  0  0  0  0  0  0  0
    3.4733    1.7563    0.0000 H   0  0  0  0  0  0  0  0  0  0  0  0
    2.3079   -0.2444    0.0000 H   0  0  0  0  0  0  0  0  0  0  0  0
    1.4619   -0.4746    0.0000 H   0  0  0  0  0  0  0  0  0  0  0  0
    1.6921   -1.3206    0.0000 H   0  0  0  0  0  0  0  0  0  0  0  0
  1 10  1  0  0  0  0
  1 33  1  0  0  0  0
  2 16  1  0  0  0  0
  2 22  1  0  0  0  0
  3 14  2  0  0  0  0
  4 15  2  0  0  0  0
  5 18  1  0  0  0  0
  5 23  1  0  0  0  0
  6  7  1  0  0  0  0
  6 10  2  0  0  0  0
  6 14  1  0  0  0  0
  7 11  2  0  0  0  0
  7 15  1  0  0  0  0
  8  9  1  0  0  0  0
  8 10  1  0  0  0  0
  8 16  2  0  0  0  0
  9 11  1  0  0  0  0
  9 17  2  0  0  0  0
 11 24  1  0  0  0  0
 12 13  2  0  0  0  0
 12 14  1  0  0  0  0
 12 20  1  0  0  0  0
 13 15  1  0  0  0  0
 13 21  1  0  0  0  0
 16 19  1  0  0  0  0
 17 18  1  0  0  0  0
 17 25  1  0  0  0  0
 18 19  2  0  0  0  0
 19 26  1  0  0  0  0
 20 27  1  0  0  0  0
 20 28  1  0  0  0  0
 20 29  1  0  0  0  0
 21 30  1  0  0  0  0
 21 31  1  0  0  0  0
 21 32  1  0  0  0  0
 22 34  1  0  0  0  0
 22 35  1  0  0  0  0
 22 36  1  0  0  0  0
 23 37  1  0  0  0  0
 23 38  1  0  0  0  0
 23 39  1  0  0  0  0
M  END
> <PUBCHEM_COMPOUND_CID>
628435

> <PUBCHEM_COMPOUND_CANONICALIZED>
1

> <PUBCHEM_CACTVS_COMPLEXITY>
552

> <PUBCHEM_CACTVS_HBOND_ACCEPTOR>
5

> <PUBCHEM_CACTVS_HBOND_DONOR>
1

> <PUBCHEM_CACTVS_ROTATABLE_BOND>
2

> <PUBCHEM_CACTVS_SUBSKEYS>
AAADceB4OAAAAAAAAAAAAAAAAAAAAAAAAAAwYIAAAAAAAADBUAAAGgAACAAADASAmAIyBsAABgCIAqBSAAACCAAkIAAAiAEGCMgMJzaGNRqAcWAl4BUIuYeL7PzO4AADCAAYAADAAAYQADAAAAAAAAAAAA==

> <PUBCHEM_IUPAC_OPENEYE_NAME>
10-hydroxy-5,7-dimethoxy-2,3-dimethyl-anthracene-1,4-dione

> <PUBCHEM_IUPAC_CAS_NAME>
10-hydroxy-5,7-dimethoxy-2,3-dimethylanthracene-1,4-dione

> <PUBCHEM_IUPAC_NAME_MARKUP>
10-hydroxy-5,7-dimethoxy-2,3-dimethylanthracene-1,4-dione

> <PUBCHEM_IUPAC_NAME>
10-hydroxy-5,7-dimethoxy-2,3-dimethylanthracene-1,4-dione

> <PUBCHEM_IUPAC_SYSTEMATIC_NAME>
5,7-dimethoxy-2,3-dimethyl-10-oxidanyl-anthracene-1,4-dione

> <PUBCHEM_IUPAC_TRADITIONAL_NAME>
10-hydroxy-5,7-dimethoxy-2,3-dimethyl-1,4-anthraquinone

> <PUBCHEM_IUPAC_INCHI>
InChI=1S/C18H16O5/c1-8-9(2)17(20)15-12(16(8)19)6-10-5-11(22-3)7-13(23-4)14(10)18(15)21/h5-7,21H,1-4H3

> <PUBCHEM_IUPAC_INCHIKEY>
HBJBBWDKPXUWTC-UHFFFAOYSA-N

> <PUBCHEM_XLOGP3_AA>
3.6

> <PUBCHEM_EXACT_MASS>
312.09977361

> <PUBCHEM_MOLECULAR_FORMULA>
C18H16O5

> <PUBCHEM_MOLECULAR_WEIGHT>
312.3

> <PUBCHEM_SMILES>
CC1=C(C(=O)C2=C(C3=C(C=C(C=C3C=C2C1=O)OC)OC)O)C

> <PUBCHEM_CONNECTIVITY_SMILES>
CC1=C(C(=O)C2=C(C3=C(C=C(C=C3C=C2C1=O)OC)OC)O)C

> <PUBCHEM_CACTVS_TPSA>
72.8

> <PUBCHEM_MONOISOTOPIC_WEIGHT>
312.09977361

> <PUBCHEM_TOTAL_CHARGE>
0

> <PUBCHEM_HEAVY_ATOM_COUNT>
23

> <PUBCHEM_ATOM_DEF_STEREO_COUNT>
0

> <PUBCHEM_ATOM_UDEF_STEREO_COUNT>
0

> <PUBCHEM_BOND_DEF_STEREO_COUNT>
0

> <PUBCHEM_BOND_UDEF_STEREO_COUNT>
0

> <PUBCHEM_ISOTOPIC_ATOM_COUNT>
0

> <PUBCHEM_COMPONENT_COUNT>
1

> <PUBCHEM_CACTVS_TAUTO_COUNT>
-1

> <PUBCHEM_COORDINATE_TYPE>
1
5
255

> <PUBCHEM_BONDANNOTATIONS>
16  19  8
17  18  8
18  19  8
6  10  8
6  7  8
7  11  8
8  10  8
8  16  8
8  9  8
9  11  8
9  17  8

$$$$
