630355
  -OEChem-05122608482D

 52 54  0     0  0  0  0  0  0999 V2000
    3.0000    6.0000    0.0000 O   0  0  0  0  0  0  0  0  0  0  0  0
    3.0000   -6.0000    0.0000 O   0  0  0  0  0  0  0  0  0  0  0  0
    3.0000    2.0000    0.0000 C   0  0  0  0  0  0  0  0  0  0  0  0
    3.0000   -2.0000    0.0000 C   0  0  0  0  0  0  0  0  0  0  0  0
    3.0000    1.0000    0.0000 C   0  0  0  0  0  0  0  0  0  0  0  0
    3.0000   -1.0000    0.0000 C   0  0  0  0  0  0  0  0  0  0  0  0
    3.0000    3.0000    0.0000 C   0  0  0  0  0  0  0  0  0  0  0  0
    3.0000   -3.0000    0.0000 C   0  0  0  0  0  0  0  0  0  0  0  0
    4.0000    2.0000    0.0000 C   0  0  0  0  0  0  0  0  0  0  0  0
    2.0000    2.0000    0.0000 C   0  0  0  0  0  0  0  0  0  0  0  0
    2.0000   -2.0000    0.0000 C   0  0  0  0  0  0  0  0  0  0  0  0
    4.0000   -2.0000    0.0000 C   0  0  0  0  0  0  0  0  0  0  0  0
    2.1340    0.5000    0.0000 C   0  0  0  0  0  0  0  0  0  0  0  0
    2.1340   -0.5000    0.0000 C   0  0  0  0  0  0  0  0  0  0  0  0
    3.8660    0.5000    0.0000 C   0  0  0  0  0  0  0  0  0  0  0  0
    3.8660   -0.5000    0.0000 C   0  0  0  0  0  0  0  0  0  0  0  0
    2.1340    3.5000    0.0000 C   0  0  0  0  0  0  0  0  0  0  0  0
    2.1340   -3.5000    0.0000 C   0  0  0  0  0  0  0  0  0  0  0  0
    3.8660    3.5000    0.0000 C   0  0  0  0  0  0  0  0  0  0  0  0
    3.8660   -3.5000    0.0000 C   0  0  0  0  0  0  0  0  0  0  0  0
    2.1340    4.5000    0.0000 C   0  0  0  0  0  0  0  0  0  0  0  0
    2.1340   -4.5000    0.0000 C   0  0  0  0  0  0  0  0  0  0  0  0
    3.8660    4.5000    0.0000 C   0  0  0  0  0  0  0  0  0  0  0  0
    3.8660   -4.5000    0.0000 C   0  0  0  0  0  0  0  0  0  0  0  0
    3.0000    5.0000    0.0000 C   0  0  0  0  0  0  0  0  0  0  0  0
    3.0000   -5.0000    0.0000 C   0  0  0  0  0  0  0  0  0  0  0  0
    4.0000    1.3800    0.0000 H   0  0  0  0  0  0  0  0  0  0  0  0
    4.6200    2.0000    0.0000 H   0  0  0  0  0  0  0  0  0  0  0  0
    4.0000    2.6200    0.0000 H   0  0  0  0  0  0  0  0  0  0  0  0
    2.0000    2.6200    0.0000 H   0  0  0  0  0  0  0  0  0  0  0  0
    1.3800    2.0000    0.0000 H   0  0  0  0  0  0  0  0  0  0  0  0
    2.0000    1.3800    0.0000 H   0  0  0  0  0  0  0  0  0  0  0  0
    2.0000   -1.3800    0.0000 H   0  0  0  0  0  0  0  0  0  0  0  0
    1.3800   -2.0000    0.0000 H   0  0  0  0  0  0  0  0  0  0  0  0
    2.0000   -2.6200    0.0000 H   0  0  0  0  0  0  0  0  0  0  0  0
    4.0000   -2.6200    0.0000 H   0  0  0  0  0  0  0  0  0  0  0  0
    4.6200   -2.0000    0.0000 H   0  0  0  0  0  0  0  0  0  0  0  0
    4.0000   -1.3800    0.0000 H   0  0  0  0  0  0  0  0  0  0  0  0
    1.5970    0.8100    0.0000 H   0  0  0  0  0  0  0  0  0  0  0  0
    1.5970   -0.8100    0.0000 H   0  0  0  0  0  0  0  0  0  0  0  0
    4.4030    0.8100    0.0000 H   0  0  0  0  0  0  0  0  0  0  0  0
    4.4030   -0.8100    0.0000 H   0  0  0  0  0  0  0  0  0  0  0  0
    1.5970    3.1900    0.0000 H   0  0  0  0  0  0  0  0  0  0  0  0
    1.5970   -3.1900    0.0000 H   0  0  0  0  0  0  0  0  0  0  0  0
    4.4030    3.1900    0.0000 H   0  0  0  0  0  0  0  0  0  0  0  0
    4.4030   -3.1900    0.0000 H   0  0  0  0  0  0  0  0  0  0  0  0
    1.5970    4.8100    0.0000 H   0  0  0  0  0  0  0  0  0  0  0  0
    1.5970   -4.8100    0.0000 H   0  0  0  0  0  0  0  0  0  0  0  0
    4.4030    4.8100    0.0000 H   0  0  0  0  0  0  0  0  0  0  0  0
    4.4030   -4.8100    0.0000 H   0  0  0  0  0  0  0  0  0  0  0  0
    3.5369    6.3100    0.0000 H   0  0  0  0  0  0  0  0  0  0  0  0
    2.4631   -6.3100    0.0000 H   0  0  0  0  0  0  0  0  0  0  0  0
  1 25  1  0  0  0  0
  1 51  1  0  0  0  0
  2 26  1  0  0  0  0
  2 52  1  0  0  0  0
  3  5  1  0  0  0  0
  3  7  1  0  0  0  0
  3  9  1  0  0  0  0
  3 10  1  0  0  0  0
  4  6  1  0  0  0  0
  4  8  1  0  0  0  0
  4 11  1  0  0  0  0
  4 12  1  0  0  0  0
  5 13  2  0  0  0  0
  5 15  1  0  0  0  0
  6 14  2  0  0  0  0
  6 16  1  0  0  0  0
  7 17  2  0  0  0  0
  7 19  1  0  0  0  0
  8 18  2  0  0  0  0
  8 20  1  0  0  0  0
  9 27  1  0  0  0  0
  9 28  1  0  0  0  0
  9 29  1  0  0  0  0
 10 30  1  0  0  0  0
 10 31  1  0  0  0  0
 10 32  1  0  0  0  0
 11 33  1  0  0  0  0
 11 34  1  0  0  0  0
 11 35  1  0  0  0  0
 12 36  1  0  0  0  0
 12 37  1  0  0  0  0
 12 38  1  0  0  0  0
 13 14  1  0  0  0  0
 13 39  1  0  0  0  0
 14 40  1  0  0  0  0
 15 16  2  0  0  0  0
 15 41  1  0  0  0  0
 16 42  1  0  0  0  0
 17 21  1  0  0  0  0
 17 43  1  0  0  0  0
 18 22  1  0  0  0  0
 18 44  1  0  0  0  0
 19 23  2  0  0  0  0
 19 45  1  0  0  0  0
 20 24  2  0  0  0  0
 20 46  1  0  0  0  0
 21 25  2  0  0  0  0
 21 47  1  0  0  0  0
 22 26  2  0  0  0  0
 22 48  1  0  0  0  0
 23 25  1  0  0  0  0
 23 49  1  0  0  0  0
 24 26  1  0  0  0  0
 24 50  1  0  0  0  0
M  END
> <PUBCHEM_COMPOUND_CID>
630355

> <PUBCHEM_COMPOUND_CANONICALIZED>
1

> <PUBCHEM_CACTVS_COMPLEXITY>
389

> <PUBCHEM_CACTVS_HBOND_ACCEPTOR>
2

> <PUBCHEM_CACTVS_HBOND_DONOR>
2

> <PUBCHEM_CACTVS_ROTATABLE_BOND>
4

> <PUBCHEM_CACTVS_SUBSKEYS>
AAADceB4MAAAAAAAAAAAAAAAAAAAAAAAAAAwYMAAAAAAAAABUAAAGgAACAAADgSAmAAyBoAAAgCAAiBCAAACAAAgIAAIiAAGCIgIJiKCERKAcAAkwBEImAeAwPAP4AAAAAAAAADAAAAAAAAAAAAAAAAAAA==

> <PUBCHEM_IUPAC_OPENEYE_NAME>
4-[1-[4-[1-(4-hydroxyphenyl)-1-methyl-ethyl]phenyl]-1-methyl-ethyl]phenol

> <PUBCHEM_IUPAC_CAS_NAME>
4-[2-[4-[2-(4-hydroxyphenyl)propan-2-yl]phenyl]propan-2-yl]phenol

> <PUBCHEM_IUPAC_NAME_MARKUP>
4-[2-[4-[2-(4-hydroxyphenyl)propan-2-yl]phenyl]propan-2-yl]phenol

> <PUBCHEM_IUPAC_NAME>
4-[2-[4-[2-(4-hydroxyphenyl)propan-2-yl]phenyl]propan-2-yl]phenol

> <PUBCHEM_IUPAC_SYSTEMATIC_NAME>
4-[2-[4-[2-(4-hydroxyphenyl)propan-2-yl]phenyl]propan-2-yl]phenol

> <PUBCHEM_IUPAC_TRADITIONAL_NAME>
4-[1-[4-[1-(4-hydroxyphenyl)-1-methyl-ethyl]phenyl]-1-methyl-ethyl]phenol

> <PUBCHEM_IUPAC_INCHI>
InChI=1S/C24H26O2/c1-23(2,19-9-13-21(25)14-10-19)17-5-7-18(8-6-17)24(3,4)20-11-15-22(26)16-12-20/h5-16,25-26H,1-4H3

> <PUBCHEM_IUPAC_INCHIKEY>
GIXXQTYGFOHYPT-UHFFFAOYSA-N

> <PUBCHEM_XLOGP3>
6.1

> <PUBCHEM_EXACT_MASS>
346.193280068

> <PUBCHEM_MOLECULAR_FORMULA>
C24H26O2

> <PUBCHEM_MOLECULAR_WEIGHT>
346.5

> <PUBCHEM_SMILES>
CC(C)(C1=CC=C(C=C1)C(C)(C)C2=CC=C(C=C2)O)C3=CC=C(C=C3)O

> <PUBCHEM_CONNECTIVITY_SMILES>
CC(C)(C1=CC=C(C=C1)C(C)(C)C2=CC=C(C=C2)O)C3=CC=C(C=C3)O

> <PUBCHEM_CACTVS_TPSA>
40.5

> <PUBCHEM_MONOISOTOPIC_WEIGHT>
346.193280068

> <PUBCHEM_TOTAL_CHARGE>
0

> <PUBCHEM_HEAVY_ATOM_COUNT>
26

> <PUBCHEM_ATOM_DEF_STEREO_COUNT>
0

> <PUBCHEM_ATOM_UDEF_STEREO_COUNT>
0

> <PUBCHEM_BOND_DEF_STEREO_COUNT>
0

> <PUBCHEM_BOND_UDEF_STEREO_COUNT>
0

> <PUBCHEM_ISOTOPIC_ATOM_COUNT>
0

> <PUBCHEM_COMPONENT_COUNT>
1

> <PUBCHEM_CACTVS_TAUTO_COUNT>
-1

> <PUBCHEM_COORDINATE_TYPE>
1
5
255

> <PUBCHEM_BONDANNOTATIONS>
13  14  8
15  16  8
17  21  8
18  22  8
19  23  8
20  24  8
21  25  8
22  26  8
23  25  8
24  26  8
5  13  8
5  15  8
6  14  8
6  16  8
7  17  8
7  19  8
8  18  8
8  20  8

$$$$
