6328200
  -OEChem-08032615092D

  2  1  0     0  0  0  0  0  0999 V2000
    2.0000    0.0000    0.0000 B   0  0  0  0  0  0  0  0  0  0  0  0
    3.0000    0.0000    0.0000 B   0  0  0  0  0  0  0  0  0  0  0  0
  1  2  3  0  0  0  0
M  END
> <PUBCHEM_COMPOUND_CID>
6328200

> <PUBCHEM_COMPOUND_CANONICALIZED>
1

> <PUBCHEM_CACTVS_COMPLEXITY>
8

> <PUBCHEM_CACTVS_HBOND_ACCEPTOR>
0

> <PUBCHEM_CACTVS_HBOND_DONOR>
0

> <PUBCHEM_CACTVS_ROTATABLE_BOND>
0

> <PUBCHEM_CACTVS_SUBSKEYS>
AAADcQMAAAAAAAAAAAAAAAAAAAAAAAAAAAAAAAAAAAAAAAAAAABAAAAAAAAAAAAAAAAAAAAAAAAAAAAAAAAAAAAAAAAAAAAAAAAAAAAAAAAAAAAAAAAAAAAAAAAAAAAAAAAAAAAAAAAAAAAAAAAAAAAAAA==

> <PUBCHEM_IUPAC_OPENEYE_NAME>
boranylidyneborane

> <PUBCHEM_IUPAC_CAS_NAME>
boranylidyneborane

> <PUBCHEM_IUPAC_NAME_MARKUP>
boranylidyneborane

> <PUBCHEM_IUPAC_NAME>
boranylidyneborane

> <PUBCHEM_IUPAC_SYSTEMATIC_NAME>
boranylidyneborane

> <PUBCHEM_IUPAC_TRADITIONAL_NAME>
borylidyneborane

> <PUBCHEM_IUPAC_INCHI>
InChI=1S/B2/c1-2

> <PUBCHEM_IUPAC_INCHIKEY>
ZOCHARZZJNPSEU-UHFFFAOYSA-N

> <PUBCHEM_EXACT_MASS>
22.0186103

> <PUBCHEM_MOLECULAR_FORMULA>
B2

> <PUBCHEM_MOLECULAR_WEIGHT>
21.63

> <PUBCHEM_SMILES>
B#B

> <PUBCHEM_CONNECTIVITY_SMILES>
B#B

> <PUBCHEM_CACTVS_TPSA>
0

> <PUBCHEM_MONOISOTOPIC_WEIGHT>
22.0186103

> <PUBCHEM_TOTAL_CHARGE>
0

> <PUBCHEM_HEAVY_ATOM_COUNT>
2

> <PUBCHEM_ATOM_DEF_STEREO_COUNT>
0

> <PUBCHEM_ATOM_UDEF_STEREO_COUNT>
0

> <PUBCHEM_BOND_DEF_STEREO_COUNT>
0

> <PUBCHEM_BOND_UDEF_STEREO_COUNT>
0

> <PUBCHEM_ISOTOPIC_ATOM_COUNT>
0

> <PUBCHEM_COMPONENT_COUNT>
1

> <PUBCHEM_CACTVS_TAUTO_COUNT>
-1

> <PUBCHEM_COORDINATE_TYPE>
1
5
255

$$$$
