638055
  -OEChem-05122608132D

 25 26  0     1  0  0  0  0  0999 V2000
    3.7321    0.5000    0.0000 C   0  0  1  0  0  0  0  0  0  0  0  0
    3.7321   -0.5000    0.0000 C   0  0  1  0  0  0  0  0  0  0  0  0
    4.6783    0.8047    0.0000 C   0  0  0  0  0  0  0  0  0  0  0  0
    4.6783   -0.8047    0.0000 C   0  0  0  0  0  0  0  0  0  0  0  0
    2.8660    1.0000    0.0000 C   0  0  0  0  0  0  0  0  0  0  0  0
    2.8660   -1.0000    0.0000 C   0  0  0  0  0  0  0  0  0  0  0  0
    5.2619   -0.0000    0.0000 C   0  0  0  0  0  0  0  0  0  0  0  0
    2.0000    0.5000    0.0000 C   0  0  0  0  0  0  0  0  0  0  0  0
    2.0000   -0.5000    0.0000 C   0  0  0  0  0  0  0  0  0  0  0  0
    3.8220    1.3452    0.0000 H   0  0  0  0  0  0  0  0  0  0  0  0
    3.8220   -1.3452    0.0000 H   0  0  0  0  0  0  0  0  0  0  0  0
    5.2157    1.1140    0.0000 H   0  0  0  0  0  0  0  0  0  0  0  0
    4.4272    1.3716    0.0000 H   0  0  0  0  0  0  0  0  0  0  0  0
    4.4272   -1.3716    0.0000 H   0  0  0  0  0  0  0  0  0  0  0  0
    5.2157   -1.1140    0.0000 H   0  0  0  0  0  0  0  0  0  0  0  0
    3.2646    1.4750    0.0000 H   0  0  0  0  0  0  0  0  0  0  0  0
    2.4675    1.4750    0.0000 H   0  0  0  0  0  0  0  0  0  0  0  0
    2.4675   -1.4750    0.0000 H   0  0  0  0  0  0  0  0  0  0  0  0
    3.2646   -1.4750    0.0000 H   0  0  0  0  0  0  0  0  0  0  0  0
    5.7228   -0.4147    0.0000 H   0  0  0  0  0  0  0  0  0  0  0  0
    5.7228    0.4147    0.0000 H   0  0  0  0  0  0  0  0  0  0  0  0
    1.7880    1.0826    0.0000 H   0  0  0  0  0  0  0  0  0  0  0  0
    1.3894    0.3923    0.0000 H   0  0  0  0  0  0  0  0  0  0  0  0
    1.3894   -0.3923    0.0000 H   0  0  0  0  0  0  0  0  0  0  0  0
    1.7880   -1.0826    0.0000 H   0  0  0  0  0  0  0  0  0  0  0  0
  1  2  1  0  0  0  0
  1  3  1  0  0  0  0
  1  5  1  0  0  0  0
  1 10  1  1  0  0  0
  2  4  1  0  0  0  0
  2  6  1  0  0  0  0
  2 11  1  6  0  0  0
  3  7  1  0  0  0  0
  3 12  1  0  0  0  0
  3 13  1  0  0  0  0
  4  7  1  0  0  0  0
  4 14  1  0  0  0  0
  4 15  1  0  0  0  0
  5  8  1  0  0  0  0
  5 16  1  0  0  0  0
  5 17  1  0  0  0  0
  6  9  1  0  0  0  0
  6 18  1  0  0  0  0
  6 19  1  0  0  0  0
  7 20  1  0  0  0  0
  7 21  1  0  0  0  0
  8  9  1  0  0  0  0
  8 22  1  0  0  0  0
  8 23  1  0  0  0  0
  9 24  1  0  0  0  0
  9 25  1  0  0  0  0
M  END
> <PUBCHEM_COMPOUND_CID>
638055

> <PUBCHEM_COMPOUND_CANONICALIZED>
1

> <PUBCHEM_CACTVS_COMPLEXITY>
84.2

> <PUBCHEM_CACTVS_HBOND_ACCEPTOR>
0

> <PUBCHEM_CACTVS_HBOND_DONOR>
0

> <PUBCHEM_CACTVS_ROTATABLE_BOND>
0

> <PUBCHEM_CACTVS_SUBSKEYS>
AAADceBwAAAAAAAAAAAAAAAAAAAAAYAAAAAwAAAAAAAAAGAAAAAAGAAAAAAADQCAAAAAAAAAAAAAAAAAAAAAAAAAAAAAAAAAAAAAAAIAAAAAAAAAAAAAAAEAgIAOgAAAAAAAAAAAAAAAACAAAAAACAAAAA==

> <PUBCHEM_IUPAC_OPENEYE_NAME>
(3aR,7aR)-2,3,3a,4,5,6,7,7a-octahydro-1H-indene

> <PUBCHEM_IUPAC_CAS_NAME>
(3aR,7aR)-2,3,3a,4,5,6,7,7a-octahydro-1H-indene

> <PUBCHEM_IUPAC_NAME_MARKUP>
(3<I>a</I><I>R</I>,7<I>a</I><I>R</I>)-2,3,3<I>a</I>,4,5,6,7,7<I>a</I>-octahydro-1<I>H</I>-indene

> <PUBCHEM_IUPAC_NAME>
(3aR,7aR)-2,3,3a,4,5,6,7,7a-octahydro-1H-indene

> <PUBCHEM_IUPAC_SYSTEMATIC_NAME>
(3aR,7aR)-2,3,3a,4,5,6,7,7a-octahydro-1H-indene

> <PUBCHEM_IUPAC_TRADITIONAL_NAME>
(3aR,7aR)-2,3,3a,4,5,6,7,7a-octahydro-1H-indene

> <PUBCHEM_IUPAC_INCHI>
InChI=1S/C9H16/c1-2-5-9-7-3-6-8(9)4-1/h8-9H,1-7H2/t8-,9-/m1/s1

> <PUBCHEM_IUPAC_INCHIKEY>
BNRNAKTVFSZAFA-RKDXNWHRSA-N

> <PUBCHEM_XLOGP3_AA>
4.1

> <PUBCHEM_EXACT_MASS>
124.125200510

> <PUBCHEM_MOLECULAR_FORMULA>
C9H16

> <PUBCHEM_MOLECULAR_WEIGHT>
124.22

> <PUBCHEM_SMILES>
C1CC[C@@H]2CCC[C@H]2C1

> <PUBCHEM_CONNECTIVITY_SMILES>
C1CCC2CCCC2C1

> <PUBCHEM_CACTVS_TPSA>
0

> <PUBCHEM_MONOISOTOPIC_WEIGHT>
124.125200510

> <PUBCHEM_TOTAL_CHARGE>
0

> <PUBCHEM_HEAVY_ATOM_COUNT>
9

> <PUBCHEM_ATOM_DEF_STEREO_COUNT>
2

> <PUBCHEM_ATOM_UDEF_STEREO_COUNT>
0

> <PUBCHEM_BOND_DEF_STEREO_COUNT>
0

> <PUBCHEM_BOND_UDEF_STEREO_COUNT>
0

> <PUBCHEM_ISOTOPIC_ATOM_COUNT>
0

> <PUBCHEM_COMPONENT_COUNT>
1

> <PUBCHEM_CACTVS_TAUTO_COUNT>
-1

> <PUBCHEM_COORDINATE_TYPE>
1
5
255

> <PUBCHEM_BONDANNOTATIONS>
1  10  5
2  11  6

$$$$
