6421258
  -OEChem-05122609122D

 57 56  0     0  0  0  0  0  0999 V2000
    3.7321   -1.8100    0.0000 O   0  0  0  0  0  0  0  0  0  0  0  0
    4.5981   -3.3100    0.0000 O   0  0  0  0  0  0  0  0  0  0  0  0
    4.5981    0.6900    0.0000 C   0  0  0  0  0  0  0  0  0  0  0  0
    3.7321    1.1900    0.0000 C   0  0  0  0  0  0  0  0  0  0  0  0
    5.4641    1.1900    0.0000 C   0  0  0  0  0  0  0  0  0  0  0  0
    2.8660    0.6900    0.0000 C   0  0  0  0  0  0  0  0  0  0  0  0
    5.4641    2.1900    0.0000 C   0  0  0  0  0  0  0  0  0  0  0  0
    2.0000    1.1900    0.0000 C   0  0  0  0  0  0  0  0  0  0  0  0
    6.3301   -2.3100    0.0000 C   0  0  0  0  0  0  0  0  0  0  0  0
    7.1962   -1.8100    0.0000 C   0  0  0  0  0  0  0  0  0  0  0  0
    6.3301    2.6900    0.0000 C   0  0  0  0  0  0  0  0  0  0  0  0
    5.4641   -1.8100    0.0000 C   0  0  0  0  0  0  0  0  0  0  0  0
    7.1962    2.1900    0.0000 C   0  0  0  0  0  0  0  0  0  0  0  0
    8.0622   -2.3100    0.0000 C   0  0  0  0  0  0  0  0  0  0  0  0
    8.9282   -0.8100    0.0000 C   0  0  0  0  0  0  0  0  0  0  0  0
    8.9282   -1.8100    0.0000 C   0  0  0  0  0  0  0  0  0  0  0  0
    8.0622    2.6900    0.0000 C   0  0  0  0  0  0  0  0  0  0  0  0
    8.9282    1.1900    0.0000 C   0  0  0  0  0  0  0  0  0  0  0  0
    8.9282    2.1900    0.0000 C   0  0  0  0  0  0  0  0  0  0  0  0
    4.5981   -2.3100    0.0000 C   0  0  0  0  0  0  0  0  0  0  0  0
    9.7942   -0.3100    0.0000 C   0  0  0  0  0  0  0  0  0  0  0  0
    9.7942    0.6900    0.0000 C   0  0  0  0  0  0  0  0  0  0  0  0
    2.8660   -2.3100    0.0000 C   0  0  0  0  0  0  0  0  0  0  0  0
    4.1996    0.2151    0.0000 H   0  0  0  0  0  0  0  0  0  0  0  0
    4.9966    0.2151    0.0000 H   0  0  0  0  0  0  0  0  0  0  0  0
    4.1306    1.6650    0.0000 H   0  0  0  0  0  0  0  0  0  0  0  0
    3.3335    1.6650    0.0000 H   0  0  0  0  0  0  0  0  0  0  0  0
    5.6762    0.6074    0.0000 H   0  0  0  0  0  0  0  0  0  0  0  0
    6.0747    1.2977    0.0000 H   0  0  0  0  0  0  0  0  0  0  0  0
    2.4675    0.2151    0.0000 H   0  0  0  0  0  0  0  0  0  0  0  0
    3.2646    0.2151    0.0000 H   0  0  0  0  0  0  0  0  0  0  0  0
    4.9272    2.5000    0.0000 H   0  0  0  0  0  0  0  0  0  0  0  0
    2.3100    1.7269    0.0000 H   0  0  0  0  0  0  0  0  0  0  0  0
    1.4631    1.5000    0.0000 H   0  0  0  0  0  0  0  0  0  0  0  0
    1.6900    0.6531    0.0000 H   0  0  0  0  0  0  0  0  0  0  0  0
    5.9316   -2.7850    0.0000 H   0  0  0  0  0  0  0  0  0  0  0  0
    6.7287   -2.7850    0.0000 H   0  0  0  0  0  0  0  0  0  0  0  0
    7.5947   -1.3351    0.0000 H   0  0  0  0  0  0  0  0  0  0  0  0
    6.7976   -1.3351    0.0000 H   0  0  0  0  0  0  0  0  0  0  0  0
    6.3301    3.3100    0.0000 H   0  0  0  0  0  0  0  0  0  0  0  0
    5.8626   -1.3351    0.0000 H   0  0  0  0  0  0  0  0  0  0  0  0
    5.0656   -1.3351    0.0000 H   0  0  0  0  0  0  0  0  0  0  0  0
    6.7976    1.7151    0.0000 H   0  0  0  0  0  0  0  0  0  0  0  0
    7.5947    1.7151    0.0000 H   0  0  0  0  0  0  0  0  0  0  0  0
    8.0622   -2.9300    0.0000 H   0  0  0  0  0  0  0  0  0  0  0  0
    8.7162   -0.2274    0.0000 H   0  0  0  0  0  0  0  0  0  0  0  0
    8.3176   -0.9177    0.0000 H   0  0  0  0  0  0  0  0  0  0  0  0
    9.4651   -2.1200    0.0000 H   0  0  0  0  0  0  0  0  0  0  0  0
    8.0622    3.3100    0.0000 H   0  0  0  0  0  0  0  0  0  0  0  0
    8.3176    1.2977    0.0000 H   0  0  0  0  0  0  0  0  0  0  0  0
    8.7162    0.6074    0.0000 H   0  0  0  0  0  0  0  0  0  0  0  0
    9.4651    2.5000    0.0000 H   0  0  0  0  0  0  0  0  0  0  0  0
   10.3312   -0.6200    0.0000 H   0  0  0  0  0  0  0  0  0  0  0  0
   10.3312    1.0000    0.0000 H   0  0  0  0  0  0  0  0  0  0  0  0
    2.5560   -1.7731    0.0000 H   0  0  0  0  0  0  0  0  0  0  0  0
    2.3291   -2.6200    0.0000 H   0  0  0  0  0  0  0  0  0  0  0  0
    3.1760   -2.8469    0.0000 H   0  0  0  0  0  0  0  0  0  0  0  0
  1 20  1  0  0  0  0
  1 23  1  0  0  0  0
  2 20  2  0  0  0  0
  3  4  1  0  0  0  0
  3  5  1  0  0  0  0
  3 24  1  0  0  0  0
  3 25  1  0  0  0  0
  4  6  1  0  0  0  0
  4 26  1  0  0  0  0
  4 27  1  0  0  0  0
  5  7  1  0  0  0  0
  5 28  1  0  0  0  0
  5 29  1  0  0  0  0
  6  8  1  0  0  0  0
  6 30  1  0  0  0  0
  6 31  1  0  0  0  0
  7 11  2  0  0  0  0
  7 32  1  0  0  0  0
  8 33  1  0  0  0  0
  8 34  1  0  0  0  0
  8 35  1  0  0  0  0
  9 10  1  0  0  0  0
  9 12  1  0  0  0  0
  9 36  1  0  0  0  0
  9 37  1  0  0  0  0
 10 14  1  0  0  0  0
 10 38  1  0  0  0  0
 10 39  1  0  0  0  0
 11 13  1  0  0  0  0
 11 40  1  0  0  0  0
 12 20  1  0  0  0  0
 12 41  1  0  0  0  0
 12 42  1  0  0  0  0
 13 17  1  0  0  0  0
 13 43  1  0  0  0  0
 13 44  1  0  0  0  0
 14 16  2  0  0  0  0
 14 45  1  0  0  0  0
 15 16  1  0  0  0  0
 15 21  1  0  0  0  0
 15 46  1  0  0  0  0
 15 47  1  0  0  0  0
 16 48  1  0  0  0  0
 17 19  2  0  0  0  0
 17 49  1  0  0  0  0
 18 19  1  0  0  0  0
 18 22  1  0  0  0  0
 18 50  1  0  0  0  0
 18 51  1  0  0  0  0
 19 52  1  0  0  0  0
 21 22  2  0  0  0  0
 21 53  1  0  0  0  0
 22 54  1  0  0  0  0
 23 55  1  0  0  0  0
 23 56  1  0  0  0  0
 23 57  1  0  0  0  0
M  END
> <PUBCHEM_COMPOUND_CID>
6421258

> <PUBCHEM_COMPOUND_CANONICALIZED>
1

> <PUBCHEM_CACTVS_COMPLEXITY>
375

> <PUBCHEM_CACTVS_HBOND_ACCEPTOR>
2

> <PUBCHEM_CACTVS_HBOND_DONOR>
0

> <PUBCHEM_CACTVS_ROTATABLE_BOND>
15

> <PUBCHEM_CACTVS_SUBSKEYS>
AAADcfB4MAAAAAAAAAAAAAAAAAAAAAAAAAAAAAAAAAAAAAAAAAAAGgAAAAAACACAgAICCAAABACIACDSCAAAAAAgAAAICAEAAAgAABIAAQAAAAAEgAAIAAOIAAAAAAAAAAAAAAAAAAAAAAAAAAAAAAAAAA==

> <PUBCHEM_IUPAC_OPENEYE_NAME>
methyl (5Z,8Z,11Z,14Z)-icosa-5,8,11,14-tetraenoate

> <PUBCHEM_IUPAC_CAS_NAME>
(5Z,8Z,11Z,14Z)-eicosa-5,8,11,14-tetraenoic acid methyl ester

> <PUBCHEM_IUPAC_NAME_MARKUP>
methyl (5<I>Z</I>,8<I>Z</I>,11<I>Z</I>,14<I>Z</I>)-icosa-5,8,11,14-tetraenoate

> <PUBCHEM_IUPAC_NAME>
methyl (5Z,8Z,11Z,14Z)-icosa-5,8,11,14-tetraenoate

> <PUBCHEM_IUPAC_SYSTEMATIC_NAME>
methyl (5Z,8Z,11Z,14Z)-icosa-5,8,11,14-tetraenoate

> <PUBCHEM_IUPAC_TRADITIONAL_NAME>
(5Z,8Z,11Z,14Z)-eicosa-5,8,11,14-tetraenoic acid methyl ester

> <PUBCHEM_IUPAC_INCHI>
InChI=1S/C21H34O2/c1-3-4-5-6-7-8-9-10-11-12-13-14-15-16-17-18-19-20-21(22)23-2/h7-8,10-11,13-14,16-17H,3-6,9,12,15,18-20H2,1-2H3/b8-7-,11-10-,14-13-,17-16-

> <PUBCHEM_IUPAC_INCHIKEY>
OFIDNKMQBYGNIW-ZKWNWVNESA-N

> <PUBCHEM_XLOGP3_AA>
6.6

> <PUBCHEM_EXACT_MASS>
318.255880323

> <PUBCHEM_MOLECULAR_FORMULA>
C21H34O2

> <PUBCHEM_MOLECULAR_WEIGHT>
318.5

> <PUBCHEM_SMILES>
CCCCC/C=C\C/C=C\C/C=C\C/C=C\CCCC(=O)OC

> <PUBCHEM_CONNECTIVITY_SMILES>
CCCCCC=CCC=CCC=CCC=CCCCC(=O)OC

> <PUBCHEM_CACTVS_TPSA>
26.3

> <PUBCHEM_MONOISOTOPIC_WEIGHT>
318.255880323

> <PUBCHEM_TOTAL_CHARGE>
0

> <PUBCHEM_HEAVY_ATOM_COUNT>
23

> <PUBCHEM_ATOM_DEF_STEREO_COUNT>
0

> <PUBCHEM_ATOM_UDEF_STEREO_COUNT>
0

> <PUBCHEM_BOND_DEF_STEREO_COUNT>
4

> <PUBCHEM_BOND_UDEF_STEREO_COUNT>
0

> <PUBCHEM_ISOTOPIC_ATOM_COUNT>
0

> <PUBCHEM_COMPONENT_COUNT>
1

> <PUBCHEM_CACTVS_TAUTO_COUNT>
-1

> <PUBCHEM_COORDINATE_TYPE>
1
5
255

$$$$
