6426649
  -OEChem-05122608322D

 47 48  0     0  0  0  0  0  0999 V2000
    5.1350   -0.1550    0.0000 O   0  0  0  0  0  0  0  0  0  0  0  0
    6.0010    2.3450    0.0000 O   0  0  0  0  0  0  0  0  0  0  0  0
    3.4030   -5.1550    0.0000 O   0  0  0  0  0  0  0  0  0  0  0  0
    3.4030   -0.1550    0.0000 O   0  0  0  0  0  0  0  0  0  0  0  0
    7.7331    2.3450    0.0000 O   0  0  0  0  0  0  0  0  0  0  0  0
    5.1350   -5.1550    0.0000 O   0  0  0  0  0  0  0  0  0  0  0  0
    2.5369   -7.6550    0.0000 O   0  0  0  0  0  0  0  0  0  0  0  0
    7.7331    7.3450    0.0000 O   0  0  0  0  0  0  0  0  0  0  0  0
    6.0010    7.3450    0.0000 O   0  0  0  0  0  0  0  0  0  0  0  0
    4.2690   -1.6550    0.0000 C   0  0  0  0  0  0  0  0  0  0  0  0
    4.2690   -3.6550    0.0000 C   0  0  0  0  0  0  0  0  0  0  0  0
    5.1350    0.8450    0.0000 C   0  0  0  0  0  0  0  0  0  0  0  0
    6.0010    1.3450    0.0000 C   0  0  0  0  0  0  0  0  0  0  0  0
    3.4030   -2.1550    0.0000 C   0  0  0  0  0  0  0  0  0  0  0  0
    5.1350   -2.1550    0.0000 C   0  0  0  0  0  0  0  0  0  0  0  0
    3.4030   -3.1550    0.0000 C   0  0  0  0  0  0  0  0  0  0  0  0
    5.1350   -3.1550    0.0000 C   0  0  0  0  0  0  0  0  0  0  0  0
    6.8671    3.8450    0.0000 C   0  0  0  0  0  0  0  0  0  0  0  0
    4.2690   -0.6550    0.0000 C   0  0  0  0  0  0  0  0  0  0  0  0
    6.0010    4.3450    0.0000 C   0  0  0  0  0  0  0  0  0  0  0  0
    7.7331    4.3450    0.0000 C   0  0  0  0  0  0  0  0  0  0  0  0
    6.8671    5.8450    0.0000 C   0  0  0  0  0  0  0  0  0  0  0  0
    6.8671    2.8450    0.0000 C   0  0  0  0  0  0  0  0  0  0  0  0
    4.2690   -4.6550    0.0000 C   0  0  0  0  0  0  0  0  0  0  0  0
    6.0010    5.3450    0.0000 C   0  0  0  0  0  0  0  0  0  0  0  0
    7.7331    5.3450    0.0000 C   0  0  0  0  0  0  0  0  0  0  0  0
    3.4030   -6.1550    0.0000 C   0  0  0  0  0  0  0  0  0  0  0  0
    2.5369   -6.6550    0.0000 C   0  0  0  0  0  0  0  0  0  0  0  0
    6.8671    6.8450    0.0000 C   0  0  0  0  0  0  0  0  0  0  0  0
    4.9230    1.4276    0.0000 H   0  0  0  0  0  0  0  0  0  0  0  0
    4.5244    0.7373    0.0000 H   0  0  0  0  0  0  0  0  0  0  0  0
    6.2131    0.7624    0.0000 H   0  0  0  0  0  0  0  0  0  0  0  0
    6.6116    1.4527    0.0000 H   0  0  0  0  0  0  0  0  0  0  0  0
    2.8660   -1.8450    0.0000 H   0  0  0  0  0  0  0  0  0  0  0  0
    5.6720   -1.8450    0.0000 H   0  0  0  0  0  0  0  0  0  0  0  0
    2.8660   -3.4650    0.0000 H   0  0  0  0  0  0  0  0  0  0  0  0
    5.6720   -3.4650    0.0000 H   0  0  0  0  0  0  0  0  0  0  0  0
    5.4641    4.0350    0.0000 H   0  0  0  0  0  0  0  0  0  0  0  0
    8.2700    4.0350    0.0000 H   0  0  0  0  0  0  0  0  0  0  0  0
    5.4641    5.6550    0.0000 H   0  0  0  0  0  0  0  0  0  0  0  0
    8.2700    5.6550    0.0000 H   0  0  0  0  0  0  0  0  0  0  0  0
    3.6150   -6.7376    0.0000 H   0  0  0  0  0  0  0  0  0  0  0  0
    4.0135   -6.0473    0.0000 H   0  0  0  0  0  0  0  0  0  0  0  0
    2.3249   -6.0724    0.0000 H   0  0  0  0  0  0  0  0  0  0  0  0
    1.9264   -6.7627    0.0000 H   0  0  0  0  0  0  0  0  0  0  0  0
    2.0000   -7.9650    0.0000 H   0  0  0  0  0  0  0  0  0  0  0  0
    7.7331    7.9650    0.0000 H   0  0  0  0  0  0  0  0  0  0  0  0
  1 12  1  0  0  0  0
  1 19  1  0  0  0  0
  2 13  1  0  0  0  0
  2 23  1  0  0  0  0
  3 24  1  0  0  0  0
  3 27  1  0  0  0  0
  4 19  2  0  0  0  0
  5 23  2  0  0  0  0
  6 24  2  0  0  0  0
  7 28  1  0  0  0  0
  7 46  1  0  0  0  0
  8 29  1  0  0  0  0
  8 47  1  0  0  0  0
  9 29  2  0  0  0  0
 10 14  2  0  0  0  0
 10 15  1  0  0  0  0
 10 19  1  0  0  0  0
 11 16  2  0  0  0  0
 11 17  1  0  0  0  0
 11 24  1  0  0  0  0
 12 13  1  0  0  0  0
 12 30  1  0  0  0  0
 12 31  1  0  0  0  0
 13 32  1  0  0  0  0
 13 33  1  0  0  0  0
 14 16  1  0  0  0  0
 14 34  1  0  0  0  0
 15 17  2  0  0  0  0
 15 35  1  0  0  0  0
 16 36  1  0  0  0  0
 17 37  1  0  0  0  0
 18 20  2  0  0  0  0
 18 21  1  0  0  0  0
 18 23  1  0  0  0  0
 20 25  1  0  0  0  0
 20 38  1  0  0  0  0
 21 26  2  0  0  0  0
 21 39  1  0  0  0  0
 22 25  2  0  0  0  0
 22 26  1  0  0  0  0
 22 29  1  0  0  0  0
 25 40  1  0  0  0  0
 26 41  1  0  0  0  0
 27 28  1  0  0  0  0
 27 42  1  0  0  0  0
 27 43  1  0  0  0  0
 28 44  1  0  0  0  0
 28 45  1  0  0  0  0
M  END
> <PUBCHEM_COMPOUND_CID>
6426649

> <PUBCHEM_COMPOUND_CANONICALIZED>
1

> <PUBCHEM_CACTVS_COMPLEXITY>
573

> <PUBCHEM_CACTVS_HBOND_ACCEPTOR>
9

> <PUBCHEM_CACTVS_HBOND_DONOR>
2

> <PUBCHEM_CACTVS_ROTATABLE_BOND>
12

> <PUBCHEM_CACTVS_SUBSKEYS>
AAADceB4PAAAAAAAAAAAAAAAAAAAAAAAAAAwYAAAAAAAAAABQAAAGgAACAAADACgmAIwCIAABgCIAiDSCAACAAAkAAAIiAEACMgJNjKANRiCcQAkwAELuYeIyDCOQAAAAAAAAACAAAAAAAAAAAAAAAAAAA==

> <PUBCHEM_IUPAC_OPENEYE_NAME>
4-[2-[4-(2-hydroxyethoxycarbonyl)benzoyl]oxyethoxycarbonyl]benzoic acid

> <PUBCHEM_IUPAC_CAS_NAME>
4-[2-[[4-[2-hydroxyethoxy(oxo)methyl]phenyl]-oxomethoxy]ethoxy-oxomethyl]benzoic acid

> <PUBCHEM_IUPAC_NAME_MARKUP>
4-[2-[4-(2-hydroxyethoxycarbonyl)benzoyl]oxyethoxycarbonyl]benzoic acid

> <PUBCHEM_IUPAC_NAME>
4-[2-[4-(2-hydroxyethoxycarbonyl)benzoyl]oxyethoxycarbonyl]benzoic acid

> <PUBCHEM_IUPAC_SYSTEMATIC_NAME>
4-[2-[4-(2-hydroxyethyloxycarbonyl)phenyl]carbonyloxyethoxycarbonyl]benzoic acid

> <PUBCHEM_IUPAC_TRADITIONAL_NAME>
4-[2-[4-(2-hydroxyethoxycarbonyl)benzoyl]oxyethoxycarbonyl]benzoic acid

> <PUBCHEM_IUPAC_INCHI>
InChI=1S/C20H18O9/c21-9-10-27-18(24)15-5-7-16(8-6-15)20(26)29-12-11-28-19(25)14-3-1-13(2-4-14)17(22)23/h1-8,21H,9-12H2,(H,22,23)

> <PUBCHEM_IUPAC_INCHIKEY>
KIBVCBDFRCQZMD-UHFFFAOYSA-N

> <PUBCHEM_XLOGP3_AA>
2

> <PUBCHEM_EXACT_MASS>
402.09508215

> <PUBCHEM_MOLECULAR_FORMULA>
C20H18O9

> <PUBCHEM_MOLECULAR_WEIGHT>
402.4

> <PUBCHEM_SMILES>
C1=CC(=CC=C1C(=O)O)C(=O)OCCOC(=O)C2=CC=C(C=C2)C(=O)OCCO

> <PUBCHEM_CONNECTIVITY_SMILES>
C1=CC(=CC=C1C(=O)O)C(=O)OCCOC(=O)C2=CC=C(C=C2)C(=O)OCCO

> <PUBCHEM_CACTVS_TPSA>
136

> <PUBCHEM_MONOISOTOPIC_WEIGHT>
402.09508215

> <PUBCHEM_TOTAL_CHARGE>
0

> <PUBCHEM_HEAVY_ATOM_COUNT>
29

> <PUBCHEM_ATOM_DEF_STEREO_COUNT>
0

> <PUBCHEM_ATOM_UDEF_STEREO_COUNT>
0

> <PUBCHEM_BOND_DEF_STEREO_COUNT>
0

> <PUBCHEM_BOND_UDEF_STEREO_COUNT>
0

> <PUBCHEM_ISOTOPIC_ATOM_COUNT>
0

> <PUBCHEM_COMPONENT_COUNT>
1

> <PUBCHEM_CACTVS_TAUTO_COUNT>
-1

> <PUBCHEM_COORDINATE_TYPE>
1
5
255

> <PUBCHEM_BONDANNOTATIONS>
10  14  8
10  15  8
11  16  8
11  17  8
14  16  8
15  17  8
18  20  8
18  21  8
20  25  8
21  26  8
22  25  8
22  26  8

$$$$
