6427083
  -OEChem-05122610012D

 75 75  0     0  0  0  0  0  0999 V2000
    2.8090   -6.7306    0.0000 C   0  0  0  0  0  0  0  0  0  0  0  0
    2.0000   -7.3184    0.0000 C   0  0  0  0  0  0  0  0  0  0  0  0
    3.6180   -7.3184    0.0000 C   0  0  0  0  0  0  0  0  0  0  0  0
    2.3090   -8.2694    0.0000 C   0  0  0  0  0  0  0  0  0  0  0  0
    3.3090   -8.2694    0.0000 C   0  0  0  0  0  0  0  0  0  0  0  0
    2.8090   -5.7306    0.0000 C   0  0  0  0  0  0  0  0  0  0  0  0
    3.6750   -5.2306    0.0000 C   0  0  0  0  0  0  0  0  0  0  0  0
    3.6750   -4.2306    0.0000 C   0  0  0  0  0  0  0  0  0  0  0  0
    4.5411   -3.7306    0.0000 C   0  0  0  0  0  0  0  0  0  0  0  0
    4.5411   -2.7306    0.0000 C   0  0  0  0  0  0  0  0  0  0  0  0
    5.4071   -2.2306    0.0000 C   0  0  0  0  0  0  0  0  0  0  0  0
    5.4071   -1.2306    0.0000 C   0  0  0  0  0  0  0  0  0  0  0  0
    6.2731   -0.7306    0.0000 C   0  0  0  0  0  0  0  0  0  0  0  0
    6.2731    0.2694    0.0000 C   0  0  0  0  0  0  0  0  0  0  0  0
    7.1391    0.7694    0.0000 C   0  0  0  0  0  0  0  0  0  0  0  0
    7.1391    1.7694    0.0000 C   0  0  0  0  0  0  0  0  0  0  0  0
    8.0052    2.2694    0.0000 C   0  0  0  0  0  0  0  0  0  0  0  0
    8.0052    3.2694    0.0000 C   0  0  0  0  0  0  0  0  0  0  0  0
    8.8712    3.7694    0.0000 C   0  0  0  0  0  0  0  0  0  0  0  0
    8.8712    4.7694    0.0000 C   0  0  0  0  0  0  0  0  0  0  0  0
    9.7372    5.2694    0.0000 C   0  0  0  0  0  0  0  0  0  0  0  0
    9.7372    6.2694    0.0000 C   0  0  0  0  0  0  0  0  0  0  0  0
   10.6032    6.7694    0.0000 C   0  0  0  0  0  0  0  0  0  0  0  0
   10.6032    7.7694    0.0000 C   0  0  0  0  0  0  0  0  0  0  0  0
   11.4693    8.2694    0.0000 C   0  0  0  0  0  0  0  0  0  0  0  0
    3.3614   -6.4491    0.0000 H   0  0  0  0  0  0  0  0  0  0  0  0
    1.6900   -6.7814    0.0000 H   0  0  0  0  0  0  0  0  0  0  0  0
    1.4336   -7.5705    0.0000 H   0  0  0  0  0  0  0  0  0  0  0  0
    4.1844   -7.5705    0.0000 H   0  0  0  0  0  0  0  0  0  0  0  0
    3.9280   -6.7814    0.0000 H   0  0  0  0  0  0  0  0  0  0  0  0
    1.7026   -8.3983    0.0000 H   0  0  0  0  0  0  0  0  0  0  0  0
    2.3738   -8.8860    0.0000 H   0  0  0  0  0  0  0  0  0  0  0  0
    3.2442   -8.8860    0.0000 H   0  0  0  0  0  0  0  0  0  0  0  0
    3.9155   -8.3983    0.0000 H   0  0  0  0  0  0  0  0  0  0  0  0
    2.5970   -5.1480    0.0000 H   0  0  0  0  0  0  0  0  0  0  0  0
    2.1984   -5.8382    0.0000 H   0  0  0  0  0  0  0  0  0  0  0  0
    3.8871   -5.8132    0.0000 H   0  0  0  0  0  0  0  0  0  0  0  0
    4.2856   -5.1229    0.0000 H   0  0  0  0  0  0  0  0  0  0  0  0
    3.4630   -3.6480    0.0000 H   0  0  0  0  0  0  0  0  0  0  0  0
    3.0645   -4.3382    0.0000 H   0  0  0  0  0  0  0  0  0  0  0  0
    4.7531   -4.3132    0.0000 H   0  0  0  0  0  0  0  0  0  0  0  0
    5.1516   -3.6229    0.0000 H   0  0  0  0  0  0  0  0  0  0  0  0
    4.3290   -2.1480    0.0000 H   0  0  0  0  0  0  0  0  0  0  0  0
    3.9305   -2.8382    0.0000 H   0  0  0  0  0  0  0  0  0  0  0  0
    5.6192   -2.8132    0.0000 H   0  0  0  0  0  0  0  0  0  0  0  0
    6.0177   -2.1229    0.0000 H   0  0  0  0  0  0  0  0  0  0  0  0
    5.1950   -0.6480    0.0000 H   0  0  0  0  0  0  0  0  0  0  0  0
    4.7965   -1.3382    0.0000 H   0  0  0  0  0  0  0  0  0  0  0  0
    6.4852   -1.3132    0.0000 H   0  0  0  0  0  0  0  0  0  0  0  0
    6.8837   -0.6229    0.0000 H   0  0  0  0  0  0  0  0  0  0  0  0
    6.0611    0.8520    0.0000 H   0  0  0  0  0  0  0  0  0  0  0  0
    5.6625    0.1618    0.0000 H   0  0  0  0  0  0  0  0  0  0  0  0
    7.3512    0.1868    0.0000 H   0  0  0  0  0  0  0  0  0  0  0  0
    7.7497    0.8771    0.0000 H   0  0  0  0  0  0  0  0  0  0  0  0
    6.9271    2.3520    0.0000 H   0  0  0  0  0  0  0  0  0  0  0  0
    6.5286    1.6618    0.0000 H   0  0  0  0  0  0  0  0  0  0  0  0
    8.2172    1.6868    0.0000 H   0  0  0  0  0  0  0  0  0  0  0  0
    8.6158    2.3771    0.0000 H   0  0  0  0  0  0  0  0  0  0  0  0
    7.7931    3.8520    0.0000 H   0  0  0  0  0  0  0  0  0  0  0  0
    7.3946    3.1618    0.0000 H   0  0  0  0  0  0  0  0  0  0  0  0
    9.0832    3.1868    0.0000 H   0  0  0  0  0  0  0  0  0  0  0  0
    9.4818    3.8771    0.0000 H   0  0  0  0  0  0  0  0  0  0  0  0
    8.6591    5.3520    0.0000 H   0  0  0  0  0  0  0  0  0  0  0  0
    8.2606    4.6618    0.0000 H   0  0  0  0  0  0  0  0  0  0  0  0
    9.9493    4.6868    0.0000 H   0  0  0  0  0  0  0  0  0  0  0  0
   10.3478    5.3771    0.0000 H   0  0  0  0  0  0  0  0  0  0  0  0
    9.5252    6.8520    0.0000 H   0  0  0  0  0  0  0  0  0  0  0  0
    9.1266    6.1618    0.0000 H   0  0  0  0  0  0  0  0  0  0  0  0
   10.8153    6.1868    0.0000 H   0  0  0  0  0  0  0  0  0  0  0  0
   11.2138    6.8771    0.0000 H   0  0  0  0  0  0  0  0  0  0  0  0
   10.3912    8.3520    0.0000 H   0  0  0  0  0  0  0  0  0  0  0  0
    9.9927    7.6618    0.0000 H   0  0  0  0  0  0  0  0  0  0  0  0
   11.7793    7.7325    0.0000 H   0  0  0  0  0  0  0  0  0  0  0  0
   12.0062    8.5794    0.0000 H   0  0  0  0  0  0  0  0  0  0  0  0
   11.1593    8.8064    0.0000 H   0  0  0  0  0  0  0  0  0  0  0  0
  1  2  1  0  0  0  0
  1  3  1  0  0  0  0
  1  6  1  0  0  0  0
  1 26  1  0  0  0  0
  2  4  1  0  0  0  0
  2 27  1  0  0  0  0
  2 28  1  0  0  0  0
  3  5  1  0  0  0  0
  3 29  1  0  0  0  0
  3 30  1  0  0  0  0
  4  5  1  0  0  0  0
  4 31  1  0  0  0  0
  4 32  1  0  0  0  0
  5 33  1  0  0  0  0
  5 34  1  0  0  0  0
  6  7  1  0  0  0  0
  6 35  1  0  0  0  0
  6 36  1  0  0  0  0
  7  8  1  0  0  0  0
  7 37  1  0  0  0  0
  7 38  1  0  0  0  0
  8  9  1  0  0  0  0
  8 39  1  0  0  0  0
  8 40  1  0  0  0  0
  9 10  1  0  0  0  0
  9 41  1  0  0  0  0
  9 42  1  0  0  0  0
 10 11  1  0  0  0  0
 10 43  1  0  0  0  0
 10 44  1  0  0  0  0
 11 12  1  0  0  0  0
 11 45  1  0  0  0  0
 11 46  1  0  0  0  0
 12 13  1  0  0  0  0
 12 47  1  0  0  0  0
 12 48  1  0  0  0  0
 13 14  1  0  0  0  0
 13 49  1  0  0  0  0
 13 50  1  0  0  0  0
 14 15  1  0  0  0  0
 14 51  1  0  0  0  0
 14 52  1  0  0  0  0
 15 16  1  0  0  0  0
 15 53  1  0  0  0  0
 15 54  1  0  0  0  0
 16 17  1  0  0  0  0
 16 55  1  0  0  0  0
 16 56  1  0  0  0  0
 17 18  1  0  0  0  0
 17 57  1  0  0  0  0
 17 58  1  0  0  0  0
 18 19  1  0  0  0  0
 18 59  1  0  0  0  0
 18 60  1  0  0  0  0
 19 20  1  0  0  0  0
 19 61  1  0  0  0  0
 19 62  1  0  0  0  0
 20 21  1  0  0  0  0
 20 63  1  0  0  0  0
 20 64  1  0  0  0  0
 21 22  1  0  0  0  0
 21 65  1  0  0  0  0
 21 66  1  0  0  0  0
 22 23  1  0  0  0  0
 22 67  1  0  0  0  0
 22 68  1  0  0  0  0
 23 24  1  0  0  0  0
 23 69  1  0  0  0  0
 23 70  1  0  0  0  0
 24 25  1  0  0  0  0
 24 71  1  0  0  0  0
 24 72  1  0  0  0  0
 25 73  1  0  0  0  0
 25 74  1  0  0  0  0
 25 75  1  0  0  0  0
M  END
> <PUBCHEM_COMPOUND_CID>
6427083

> <PUBCHEM_COMPOUND_CANONICALIZED>
1

> <PUBCHEM_CACTVS_COMPLEXITY>
238

> <PUBCHEM_CACTVS_HBOND_ACCEPTOR>
0

> <PUBCHEM_CACTVS_HBOND_DONOR>
0

> <PUBCHEM_CACTVS_ROTATABLE_BOND>
19

> <PUBCHEM_CACTVS_SUBSKEYS>
AAADcfB4AAAAAAAAAAAAAAAAAAAAAYAAAAAAAAAAAAAAAAAAAAAAGAAAAAAADQCAAAACAAAAAAAAAAAAAAAAAAAAAAAAAAAAAAAAAAIAAAAAAAAAAAAAAAEAgMAOAAAAAAAAAAAAAAAAAAAAAAAAAAAAAA==

> <PUBCHEM_IUPAC_OPENEYE_NAME>
icosylcyclopentane

> <PUBCHEM_IUPAC_CAS_NAME>
eicosylcyclopentane

> <PUBCHEM_IUPAC_NAME_MARKUP>
icosylcyclopentane

> <PUBCHEM_IUPAC_NAME>
icosylcyclopentane

> <PUBCHEM_IUPAC_SYSTEMATIC_NAME>
icosylcyclopentane

> <PUBCHEM_IUPAC_TRADITIONAL_NAME>
arachylcyclopentane

> <PUBCHEM_IUPAC_INCHI>
InChI=1S/C25H50/c1-2-3-4-5-6-7-8-9-10-11-12-13-14-15-16-17-18-19-22-25-23-20-21-24-25/h25H,2-24H2,1H3

> <PUBCHEM_IUPAC_INCHIKEY>
XASCPEKVIMHPQA-UHFFFAOYSA-N

> <PUBCHEM_XLOGP3_AA>
13.3

> <PUBCHEM_EXACT_MASS>
350.391251595

> <PUBCHEM_MOLECULAR_FORMULA>
C25H50

> <PUBCHEM_MOLECULAR_WEIGHT>
350.7

> <PUBCHEM_SMILES>
CCCCCCCCCCCCCCCCCCCCC1CCCC1

> <PUBCHEM_CONNECTIVITY_SMILES>
CCCCCCCCCCCCCCCCCCCCC1CCCC1

> <PUBCHEM_CACTVS_TPSA>
0

> <PUBCHEM_MONOISOTOPIC_WEIGHT>
350.391251595

> <PUBCHEM_TOTAL_CHARGE>
0

> <PUBCHEM_HEAVY_ATOM_COUNT>
25

> <PUBCHEM_ATOM_DEF_STEREO_COUNT>
0

> <PUBCHEM_ATOM_UDEF_STEREO_COUNT>
0

> <PUBCHEM_BOND_DEF_STEREO_COUNT>
0

> <PUBCHEM_BOND_UDEF_STEREO_COUNT>
0

> <PUBCHEM_ISOTOPIC_ATOM_COUNT>
0

> <PUBCHEM_COMPONENT_COUNT>
1

> <PUBCHEM_CACTVS_TAUTO_COUNT>
-1

> <PUBCHEM_COORDINATE_TYPE>
1
5
255

$$$$
