642975
  -OEChem-05122609552D

 23 24  0     1  0  0  0  0  0999 V2000
    2.5130   -1.6112    0.0000 O   0  0  0  0  0  0  0  0  0  0  0  0
    3.3066   -1.0020    0.0000 C   0  0  1  0  0  0  0  0  0  0  0  0
    2.3827   -0.6193    0.0000 C   0  0  2  0  0  0  0  0  0  0  0  0
    4.2304   -0.6193    0.0000 C   0  0  0  0  0  0  0  0  0  0  0  0
    2.0000    0.3046    0.0000 C   0  0  0  0  0  0  0  0  0  0  0  0
    4.6131    0.3046    0.0000 C   0  0  0  0  0  0  0  0  0  0  0  0
    2.3827    1.2285    0.0000 C   0  0  0  0  0  0  0  0  0  0  0  0
    4.2304    1.2285    0.0000 C   0  0  0  0  0  0  0  0  0  0  0  0
    3.3066    1.6112    0.0000 C   0  0  0  0  0  0  0  0  0  0  0  0
    3.6166   -1.5388    0.0000 H   0  0  0  0  0  0  0  0  0  0  0  0
    1.7838   -0.7797    0.0000 H   0  0  0  0  0  0  0  0  0  0  0  0
    4.3114   -1.2340    0.0000 H   0  0  0  0  0  0  0  0  0  0  0  0
    4.8451   -0.7002    0.0000 H   0  0  0  0  0  0  0  0  0  0  0  0
    1.5081    0.6820    0.0000 H   0  0  0  0  0  0  0  0  0  0  0  0
    1.5081   -0.0728    0.0000 H   0  0  0  0  0  0  0  0  0  0  0  0
    5.1050   -0.0728    0.0000 H   0  0  0  0  0  0  0  0  0  0  0  0
    5.1050    0.6820    0.0000 H   0  0  0  0  0  0  0  0  0  0  0  0
    2.3018    1.8432    0.0000 H   0  0  0  0  0  0  0  0  0  0  0  0
    1.7680    1.3094    0.0000 H   0  0  0  0  0  0  0  0  0  0  0  0
    4.8451    1.3094    0.0000 H   0  0  0  0  0  0  0  0  0  0  0  0
    4.3114    1.8432    0.0000 H   0  0  0  0  0  0  0  0  0  0  0  0
    3.6840    2.1031    0.0000 H   0  0  0  0  0  0  0  0  0  0  0  0
    2.9291    2.1031    0.0000 H   0  0  0  0  0  0  0  0  0  0  0  0
  2  1  1  1  0  0  0
  3  1  1  1  0  0  0
  2  3  1  0  0  0  0
  2  4  1  0  0  0  0
  2 10  1  0  0  0  0
  3  5  1  0  0  0  0
  3 11  1  0  0  0  0
  4  6  1  0  0  0  0
  4 12  1  0  0  0  0
  4 13  1  0  0  0  0
  5  7  1  0  0  0  0
  5 14  1  0  0  0  0
  5 15  1  0  0  0  0
  6  8  1  0  0  0  0
  6 16  1  0  0  0  0
  6 17  1  0  0  0  0
  7  9  1  0  0  0  0
  7 18  1  0  0  0  0
  7 19  1  0  0  0  0
  8  9  1  0  0  0  0
  8 20  1  0  0  0  0
  8 21  1  0  0  0  0
  9 22  1  0  0  0  0
  9 23  1  0  0  0  0
M  END
> <PUBCHEM_COMPOUND_CID>
642975

> <PUBCHEM_COMPOUND_CANONICALIZED>
1

> <PUBCHEM_CACTVS_COMPLEXITY>
88.7

> <PUBCHEM_CACTVS_HBOND_ACCEPTOR>
1

> <PUBCHEM_CACTVS_HBOND_DONOR>
0

> <PUBCHEM_CACTVS_ROTATABLE_BOND>
0

> <PUBCHEM_CACTVS_SUBSKEYS>
AAADccBwIAAAAAAAAAAAAAAAEgAAAAAAAAAAAAAAAAAYAEgAAAAAGgAAAAAACBSggAIAAAAABAAAAAAAAAAAAAAAAAAAAAAAAAAAAAIAAAACAAAEAAAAAAGAwKAAAAAAAAAAAAAAAAAAAAAAAAAAAAAAAA==

> <PUBCHEM_IUPAC_OPENEYE_NAME>
(1R,8S)-9-oxabicyclo[6.1.0]nonane

> <PUBCHEM_IUPAC_CAS_NAME>
(1R,8S)-9-oxabicyclo[6.1.0]nonane

> <PUBCHEM_IUPAC_NAME_MARKUP>
(1<I>R</I>,8<I>S</I>)-9-oxabicyclo[6.1.0]nonane

> <PUBCHEM_IUPAC_NAME>
(1R,8S)-9-oxabicyclo[6.1.0]nonane

> <PUBCHEM_IUPAC_SYSTEMATIC_NAME>
(1R,8S)-9-oxabicyclo[6.1.0]nonane

> <PUBCHEM_IUPAC_TRADITIONAL_NAME>
(1R,8S)-9-oxabicyclo[6.1.0]nonane

> <PUBCHEM_IUPAC_INCHI>
InChI=1S/C8H14O/c1-2-4-6-8-7(9-8)5-3-1/h7-8H,1-6H2/t7-,8+

> <PUBCHEM_IUPAC_INCHIKEY>
MELPJGOMEMRMPL-OCAPTIKFSA-N

> <PUBCHEM_XLOGP3_AA>
2.3

> <PUBCHEM_EXACT_MASS>
126.104465066

> <PUBCHEM_MOLECULAR_FORMULA>
C8H14O

> <PUBCHEM_MOLECULAR_WEIGHT>
126.20

> <PUBCHEM_SMILES>
C1CCC[C@H]2[C@H](O2)CC1

> <PUBCHEM_CONNECTIVITY_SMILES>
C1CCCC2C(O2)CC1

> <PUBCHEM_CACTVS_TPSA>
12.5

> <PUBCHEM_MONOISOTOPIC_WEIGHT>
126.104465066

> <PUBCHEM_TOTAL_CHARGE>
0

> <PUBCHEM_HEAVY_ATOM_COUNT>
9

> <PUBCHEM_ATOM_DEF_STEREO_COUNT>
2

> <PUBCHEM_ATOM_UDEF_STEREO_COUNT>
0

> <PUBCHEM_BOND_DEF_STEREO_COUNT>
0

> <PUBCHEM_BOND_UDEF_STEREO_COUNT>
0

> <PUBCHEM_ISOTOPIC_ATOM_COUNT>
0

> <PUBCHEM_COMPONENT_COUNT>
1

> <PUBCHEM_CACTVS_TAUTO_COUNT>
-1

> <PUBCHEM_COORDINATE_TYPE>
1
5
255

> <PUBCHEM_BONDANNOTATIONS>
2  1  5
3  1  5

$$$$
