6431019
  -OEChem-05122609522D

 32 31  0     0  0  0  0  0  0999 V2000
   10.6603   -1.3100    0.0000 O   0  0  0  0  0  0  0  0  0  0  0  0
    5.4641    0.6900    0.0000 C   0  0  0  0  0  0  0  0  0  0  0  0
    4.5981    0.1900    0.0000 C   0  0  0  0  0  0  0  0  0  0  0  0
    6.3301    0.1900    0.0000 C   0  0  0  0  0  0  0  0  0  0  0  0
    3.7320    0.6900    0.0000 C   0  0  0  0  0  0  0  0  0  0  0  0
    7.1962    0.6900    0.0000 C   0  0  0  0  0  0  0  0  0  0  0  0
    2.8660    0.1900    0.0000 C   0  0  0  0  0  0  0  0  0  0  0  0
    8.0622    0.1900    0.0000 C   0  0  0  0  0  0  0  0  0  0  0  0
    2.0000    0.6900    0.0000 C   0  0  0  0  0  0  0  0  0  0  0  0
    8.9282    0.6900    0.0000 C   0  0  0  0  0  0  0  0  0  0  0  0
    9.7942    0.1900    0.0000 C   0  0  0  0  0  0  0  0  0  0  0  0
    9.7942   -0.8100    0.0000 C   0  0  0  0  0  0  0  0  0  0  0  0
    5.8626    1.1650    0.0000 H   0  0  0  0  0  0  0  0  0  0  0  0
    5.0656    1.1650    0.0000 H   0  0  0  0  0  0  0  0  0  0  0  0
    4.1996   -0.2849    0.0000 H   0  0  0  0  0  0  0  0  0  0  0  0
    4.9966   -0.2849    0.0000 H   0  0  0  0  0  0  0  0  0  0  0  0
    5.9316   -0.2849    0.0000 H   0  0  0  0  0  0  0  0  0  0  0  0
    6.7287   -0.2849    0.0000 H   0  0  0  0  0  0  0  0  0  0  0  0
    4.1306    1.1650    0.0000 H   0  0  0  0  0  0  0  0  0  0  0  0
    3.3335    1.1650    0.0000 H   0  0  0  0  0  0  0  0  0  0  0  0
    7.5947    1.1650    0.0000 H   0  0  0  0  0  0  0  0  0  0  0  0
    6.7976    1.1650    0.0000 H   0  0  0  0  0  0  0  0  0  0  0  0
    2.4675   -0.2849    0.0000 H   0  0  0  0  0  0  0  0  0  0  0  0
    3.2646   -0.2849    0.0000 H   0  0  0  0  0  0  0  0  0  0  0  0
    7.6636   -0.2849    0.0000 H   0  0  0  0  0  0  0  0  0  0  0  0
    8.4607   -0.2849    0.0000 H   0  0  0  0  0  0  0  0  0  0  0  0
    2.3100    1.2269    0.0000 H   0  0  0  0  0  0  0  0  0  0  0  0
    1.4631    1.0000    0.0000 H   0  0  0  0  0  0  0  0  0  0  0  0
    1.6900    0.1531    0.0000 H   0  0  0  0  0  0  0  0  0  0  0  0
    8.9282    1.3100    0.0000 H   0  0  0  0  0  0  0  0  0  0  0  0
   10.3312    0.5000    0.0000 H   0  0  0  0  0  0  0  0  0  0  0  0
    9.2573   -1.1200    0.0000 H   0  0  0  0  0  0  0  0  0  0  0  0
  1 12  2  0  0  0  0
  2  3  1  0  0  0  0
  2  4  1  0  0  0  0
  2 13  1  0  0  0  0
  2 14  1  0  0  0  0
  3  5  1  0  0  0  0
  3 15  1  0  0  0  0
  3 16  1  0  0  0  0
  4  6  1  0  0  0  0
  4 17  1  0  0  0  0
  4 18  1  0  0  0  0
  5  7  1  0  0  0  0
  5 19  1  0  0  0  0
  5 20  1  0  0  0  0
  6  8  1  0  0  0  0
  6 21  1  0  0  0  0
  6 22  1  0  0  0  0
  7  9  1  0  0  0  0
  7 23  1  0  0  0  0
  7 24  1  0  0  0  0
  8 10  1  0  0  0  0
  8 25  1  0  0  0  0
  8 26  1  0  0  0  0
  9 27  1  0  0  0  0
  9 28  1  0  0  0  0
  9 29  1  0  0  0  0
 10 11  2  0  0  0  0
 10 30  1  0  0  0  0
 11 12  1  0  0  0  0
 11 31  1  0  0  0  0
 12 32  1  0  0  0  0
M  END
> <PUBCHEM_COMPOUND_CID>
6431019

> <PUBCHEM_COMPOUND_CANONICALIZED>
1

> <PUBCHEM_CACTVS_COMPLEXITY>
116

> <PUBCHEM_CACTVS_HBOND_ACCEPTOR>
1

> <PUBCHEM_CACTVS_HBOND_DONOR>
0

> <PUBCHEM_CACTVS_ROTATABLE_BOND>
8

> <PUBCHEM_CACTVS_SUBSKEYS>
AAADceBwIAAAAAAAAAAAAAAAAAAAAAAAAAAAAAAAAAAAAAAAAAAAGgAAAAAACACggAICAAAAAACIAChSgAAAAAAgAAAICAAAAEgAAAIAAQAAAAAAgAAIAYMAgIAAAAAAAAAAAAAAAAAAAAAAAAAAAAAAAA==

> <PUBCHEM_IUPAC_OPENEYE_NAME>
(Z)-undec-2-enal

> <PUBCHEM_IUPAC_CAS_NAME>
(Z)-2-undecenal

> <PUBCHEM_IUPAC_NAME_MARKUP>
(<I>Z</I>)-undec-2-enal

> <PUBCHEM_IUPAC_NAME>
(Z)-undec-2-enal

> <PUBCHEM_IUPAC_SYSTEMATIC_NAME>
(Z)-undec-2-enal

> <PUBCHEM_IUPAC_TRADITIONAL_NAME>
(Z)-undec-2-enal

> <PUBCHEM_IUPAC_INCHI>
InChI=1S/C11H20O/c1-2-3-4-5-6-7-8-9-10-11-12/h9-11H,2-8H2,1H3/b10-9-

> <PUBCHEM_IUPAC_INCHIKEY>
PANBRUWVURLWGY-KTKRTIGZSA-N

> <PUBCHEM_XLOGP3_AA>
4.2

> <PUBCHEM_EXACT_MASS>
168.151415257

> <PUBCHEM_MOLECULAR_FORMULA>
C11H20O

> <PUBCHEM_MOLECULAR_WEIGHT>
168.28

> <PUBCHEM_SMILES>
CCCCCCCC/C=C\C=O

> <PUBCHEM_CONNECTIVITY_SMILES>
CCCCCCCCC=CC=O

> <PUBCHEM_CACTVS_TPSA>
17.1

> <PUBCHEM_MONOISOTOPIC_WEIGHT>
168.151415257

> <PUBCHEM_TOTAL_CHARGE>
0

> <PUBCHEM_HEAVY_ATOM_COUNT>
12

> <PUBCHEM_ATOM_DEF_STEREO_COUNT>
0

> <PUBCHEM_ATOM_UDEF_STEREO_COUNT>
0

> <PUBCHEM_BOND_DEF_STEREO_COUNT>
1

> <PUBCHEM_BOND_UDEF_STEREO_COUNT>
0

> <PUBCHEM_ISOTOPIC_ATOM_COUNT>
0

> <PUBCHEM_COMPONENT_COUNT>
1

> <PUBCHEM_CACTVS_TAUTO_COUNT>
-1

> <PUBCHEM_COORDINATE_TYPE>
1
5
255

$$$$
