6436733
  -OEChem-05122608342D

120119  0     0  0  0  0  0  0999 V2000
    8.9282    1.2500    0.0000 S   0  0  0  0  0  0  0  0  0  0  0  0
   13.2583   -1.2500    0.0000 S   0  0  0  0  0  0  0  0  0  0  0  0
    3.7321   -5.7500    0.0000 S   0  0  0  0  0  0  0  0  0  0  0  0
   18.4545    5.7500    0.0000 S   0  0  0  0  0  0  0  0  0  0  0  0
    7.1962   -7.7500    0.0000 S   0  0  0  0  0  0  0  0  0  0  0  0
   14.9904    7.7500    0.0000 S   0  0  0  0  0  0  0  0  0  0  0  0
    8.0622   -9.2500    0.0000 Na  0  3  0  0  0  0  0  0  0  0  0  0
   14.1244    9.2500    0.0000 Na  0  3  0  0  0  0  0  0  0  0  0  0
   20.1865    5.7500    0.0000 Na  0  3  0  0  0  0  0  0  0  0  0  0
    2.0000   -5.7500    0.0000 Na  0  3  0  0  0  0  0  0  0  0  0  0
    8.0622    2.7500    0.0000 Na  0  3  0  0  0  0  0  0  0  0  0  0
   14.1244   -2.7500    0.0000 Na  0  3  0  0  0  0  0  0  0  0  0  0
    8.9282    2.2500    0.0000 O   0  5  0  0  0  0  0  0  0  0  0  0
   13.2583   -2.2500    0.0000 O   0  5  0  0  0  0  0  0  0  0  0  0
    7.9282    1.2500    0.0000 O   0  0  0  0  0  0  0  0  0  0  0  0
    9.9282    1.2500    0.0000 O   0  0  0  0  0  0  0  0  0  0  0  0
   14.2583   -1.2500    0.0000 O   0  0  0  0  0  0  0  0  0  0  0  0
   12.2583   -1.2500    0.0000 O   0  0  0  0  0  0  0  0  0  0  0  0
    2.8660   -5.2500    0.0000 O   0  5  0  0  0  0  0  0  0  0  0  0
   19.3205    5.2500    0.0000 O   0  5  0  0  0  0  0  0  0  0  0  0
    3.2321   -6.6160    0.0000 O   0  0  0  0  0  0  0  0  0  0  0  0
    4.2321   -4.8840    0.0000 O   0  0  0  0  0  0  0  0  0  0  0  0
   18.9545    6.6160    0.0000 O   0  0  0  0  0  0  0  0  0  0  0  0
   17.9545    4.8840    0.0000 O   0  0  0  0  0  0  0  0  0  0  0  0
    8.0622   -8.2500    0.0000 O   0  5  0  0  0  0  0  0  0  0  0  0
   14.1244    8.2500    0.0000 O   0  5  0  0  0  0  0  0  0  0  0  0
    6.6962   -8.6160    0.0000 O   0  0  0  0  0  0  0  0  0  0  0  0
    7.6962   -6.8840    0.0000 O   0  0  0  0  0  0  0  0  0  0  0  0
   15.4904    8.6160    0.0000 O   0  0  0  0  0  0  0  0  0  0  0  0
   14.4904    6.8840    0.0000 O   0  0  0  0  0  0  0  0  0  0  0  0
    8.9282   -4.7500    0.0000 N   0  0  0  0  0  0  0  0  0  0  0  0
   13.2583    4.7500    0.0000 N   0  0  0  0  0  0  0  0  0  0  0  0
    7.1962   -1.7500    0.0000 N   0  0  0  0  0  0  0  0  0  0  0  0
   14.9904    1.7500    0.0000 N   0  0  0  0  0  0  0  0  0  0  0  0
    5.4641   -4.7500    0.0000 N   0  0  0  0  0  0  0  0  0  0  0  0
   16.7224    4.7500    0.0000 N   0  0  0  0  0  0  0  0  0  0  0  0
    8.0622   -3.2500    0.0000 N   0  0  0  0  0  0  0  0  0  0  0  0
   14.1244    3.2500    0.0000 N   0  0  0  0  0  0  0  0  0  0  0  0
    7.1962   -4.7500    0.0000 N   0  0  0  0  0  0  0  0  0  0  0  0
   14.9904    4.7500    0.0000 N   0  0  0  0  0  0  0  0  0  0  0  0
    6.3301   -3.2500    0.0000 N   0  0  0  0  0  0  0  0  0  0  0  0
   15.8564    3.2500    0.0000 N   0  0  0  0  0  0  0  0  0  0  0  0
    9.7942   -0.2500    0.0000 C   0  0  0  0  0  0  0  0  0  0  0  0
   12.3923    0.2500    0.0000 C   0  0  0  0  0  0  0  0  0  0  0  0
    9.7942   -4.2500    0.0000 C   0  0  0  0  0  0  0  0  0  0  0  0
    8.9282   -5.7500    0.0000 C   0  0  0  0  0  0  0  0  0  0  0  0
   13.2583    5.7500    0.0000 C   0  0  0  0  0  0  0  0  0  0  0  0
   12.3923    4.2500    0.0000 C   0  0  0  0  0  0  0  0  0  0  0  0
    8.9282    0.2500    0.0000 C   0  0  0  0  0  0  0  0  0  0  0  0
   13.2583   -0.2500    0.0000 C   0  0  0  0  0  0  0  0  0  0  0  0
    8.0622   -4.2500    0.0000 C   0  0  0  0  0  0  0  0  0  0  0  0
   14.1244    4.2500    0.0000 C   0  0  0  0  0  0  0  0  0  0  0  0
    8.0622   -1.2500    0.0000 C   0  0  0  0  0  0  0  0  0  0  0  0
   14.1244    1.2500    0.0000 C   0  0  0  0  0  0  0  0  0  0  0  0
    8.0622   -0.2500    0.0000 C   0  0  0  0  0  0  0  0  0  0  0  0
   14.1244    0.2500    0.0000 C   0  0  0  0  0  0  0  0  0  0  0  0
   10.6603    0.2500    0.0000 C   0  0  0  0  0  0  0  0  0  0  0  0
   11.5263   -0.2500    0.0000 C   0  0  0  0  0  0  0  0  0  0  0  0
    5.4641   -5.7500    0.0000 C   0  0  0  0  0  0  0  0  0  0  0  0
   16.7224    5.7500    0.0000 C   0  0  0  0  0  0  0  0  0  0  0  0
    9.7942   -1.2500    0.0000 C   0  0  0  0  0  0  0  0  0  0  0  0
   12.3923    1.2500    0.0000 C   0  0  0  0  0  0  0  0  0  0  0  0
    8.9282   -1.7500    0.0000 C   0  0  0  0  0  0  0  0  0  0  0  0
   13.2583    1.7500    0.0000 C   0  0  0  0  0  0  0  0  0  0  0  0
    7.1962   -2.7500    0.0000 C   0  0  0  0  0  0  0  0  0  0  0  0
   14.9904    2.7500    0.0000 C   0  0  0  0  0  0  0  0  0  0  0  0
    6.3301   -4.2500    0.0000 C   0  0  0  0  0  0  0  0  0  0  0  0
   15.8564    4.2500    0.0000 C   0  0  0  0  0  0  0  0  0  0  0  0
    4.5981   -6.2500    0.0000 C   0  0  0  0  0  0  0  0  0  0  0  0
   17.5885    6.2500    0.0000 C   0  0  0  0  0  0  0  0  0  0  0  0
   10.6603   -4.7500    0.0000 C   0  0  0  0  0  0  0  0  0  0  0  0
    9.7942   -6.2500    0.0000 C   0  0  0  0  0  0  0  0  0  0  0  0
   12.3923    6.2500    0.0000 C   0  0  0  0  0  0  0  0  0  0  0  0
   11.5263    4.7500    0.0000 C   0  0  0  0  0  0  0  0  0  0  0  0
    6.3301   -6.2500    0.0000 C   0  0  0  0  0  0  0  0  0  0  0  0
   15.8564    6.2500    0.0000 C   0  0  0  0  0  0  0  0  0  0  0  0
    6.3301   -7.2500    0.0000 C   0  0  0  0  0  0  0  0  0  0  0  0
   15.8564    7.2500    0.0000 C   0  0  0  0  0  0  0  0  0  0  0  0
    4.5981   -7.2500    0.0000 C   0  0  0  0  0  0  0  0  0  0  0  0
   17.5885    7.2500    0.0000 C   0  0  0  0  0  0  0  0  0  0  0  0
    5.4641   -7.7500    0.0000 C   0  0  0  0  0  0  0  0  0  0  0  0
   16.7224    7.7500    0.0000 C   0  0  0  0  0  0  0  0  0  0  0  0
   10.1928   -3.7751    0.0000 H   0  0  0  0  0  0  0  0  0  0  0  0
    9.3957   -3.7751    0.0000 H   0  0  0  0  0  0  0  0  0  0  0  0
    8.3176   -5.6423    0.0000 H   0  0  0  0  0  0  0  0  0  0  0  0
    8.7162   -6.3326    0.0000 H   0  0  0  0  0  0  0  0  0  0  0  0
   13.8689    5.6423    0.0000 H   0  0  0  0  0  0  0  0  0  0  0  0
   13.4704    6.3326    0.0000 H   0  0  0  0  0  0  0  0  0  0  0  0
   11.9938    3.7751    0.0000 H   0  0  0  0  0  0  0  0  0  0  0  0
   12.7908    3.7751    0.0000 H   0  0  0  0  0  0  0  0  0  0  0  0
    7.5252    0.0600    0.0000 H   0  0  0  0  0  0  0  0  0  0  0  0
   14.6613   -0.0600    0.0000 H   0  0  0  0  0  0  0  0  0  0  0  0
   10.6603    0.8700    0.0000 H   0  0  0  0  0  0  0  0  0  0  0  0
   11.5263   -0.8700    0.0000 H   0  0  0  0  0  0  0  0  0  0  0  0
   10.3312   -1.5600    0.0000 H   0  0  0  0  0  0  0  0  0  0  0  0
   11.8554    1.5600    0.0000 H   0  0  0  0  0  0  0  0  0  0  0  0
    8.9282   -2.3700    0.0000 H   0  0  0  0  0  0  0  0  0  0  0  0
   13.2583    2.3700    0.0000 H   0  0  0  0  0  0  0  0  0  0  0  0
    6.6592   -1.4400    0.0000 H   0  0  0  0  0  0  0  0  0  0  0  0
   15.5273    1.4400    0.0000 H   0  0  0  0  0  0  0  0  0  0  0  0
    4.9272   -4.4400    0.0000 H   0  0  0  0  0  0  0  0  0  0  0  0
   17.2594    4.4400    0.0000 H   0  0  0  0  0  0  0  0  0  0  0  0
   10.3503   -5.2869    0.0000 H   0  0  0  0  0  0  0  0  0  0  0  0
   11.1972   -5.0600    0.0000 H   0  0  0  0  0  0  0  0  0  0  0  0
   10.9703   -4.2131    0.0000 H   0  0  0  0  0  0  0  0  0  0  0  0
    9.4842   -6.7869    0.0000 H   0  0  0  0  0  0  0  0  0  0  0  0
   10.3312   -6.5600    0.0000 H   0  0  0  0  0  0  0  0  0  0  0  0
   10.1042   -5.7131    0.0000 H   0  0  0  0  0  0  0  0  0  0  0  0
   12.7023    6.7869    0.0000 H   0  0  0  0  0  0  0  0  0  0  0  0
   11.8554    6.5600    0.0000 H   0  0  0  0  0  0  0  0  0  0  0  0
   12.0823    5.7131    0.0000 H   0  0  0  0  0  0  0  0  0  0  0  0
   11.8363    5.2869    0.0000 H   0  0  0  0  0  0  0  0  0  0  0  0
   10.9893    5.0600    0.0000 H   0  0  0  0  0  0  0  0  0  0  0  0
   11.2163    4.2131    0.0000 H   0  0  0  0  0  0  0  0  0  0  0  0
    6.8671   -5.9400    0.0000 H   0  0  0  0  0  0  0  0  0  0  0  0
   15.3195    5.9400    0.0000 H   0  0  0  0  0  0  0  0  0  0  0  0
    4.0611   -7.5600    0.0000 H   0  0  0  0  0  0  0  0  0  0  0  0
   18.1254    7.5600    0.0000 H   0  0  0  0  0  0  0  0  0  0  0  0
    5.4641   -8.3700    0.0000 H   0  0  0  0  0  0  0  0  0  0  0  0
   16.7224    8.3700    0.0000 H   0  0  0  0  0  0  0  0  0  0  0  0
  1 13  1  0  0  0  0
  1 15  2  0  0  0  0
  1 16  2  0  0  0  0
  1 49  1  0  0  0  0
  2 14  1  0  0  0  0
  2 17  2  0  0  0  0
  2 18  2  0  0  0  0
  2 50  1  0  0  0  0
  3 19  1  0  0  0  0
  3 21  2  0  0  0  0
  3 22  2  0  0  0  0
  3 69  1  0  0  0  0
  4 20  1  0  0  0  0
  4 23  2  0  0  0  0
  4 24  2  0  0  0  0
  4 70  1  0  0  0  0
  5 25  1  0  0  0  0
  5 27  2  0  0  0  0
  5 28  2  0  0  0  0
  5 77  1  0  0  0  0
  6 26  1  0  0  0  0
  6 29  2  0  0  0  0
  6 30  2  0  0  0  0
  6 78  1  0  0  0  0
 31 45  1  0  0  0  0
 31 46  1  0  0  0  0
 31 51  1  0  0  0  0
 32 47  1  0  0  0  0
 32 48  1  0  0  0  0
 32 52  1  0  0  0  0
 33 53  1  0  0  0  0
 33 65  1  0  0  0  0
 33 99  1  0  0  0  0
 34 54  1  0  0  0  0
 34 66  1  0  0  0  0
 34100  1  0  0  0  0
 35 59  1  0  0  0  0
 35 67  1  0  0  0  0
 35101  1  0  0  0  0
 36 60  1  0  0  0  0
 36 68  1  0  0  0  0
 36102  1  0  0  0  0
 37 51  2  0  0  0  0
 37 65  1  0  0  0  0
 38 52  2  0  0  0  0
 38 66  1  0  0  0  0
 39 51  1  0  0  0  0
 39 67  2  0  0  0  0
 40 52  1  0  0  0  0
 40 68  2  0  0  0  0
 41 65  2  0  0  0  0
 41 67  1  0  0  0  0
 42 66  2  0  0  0  0
 42 68  1  0  0  0  0
 43 49  2  0  0  0  0
 43 57  1  0  0  0  0
 43 61  1  0  0  0  0
 44 50  2  0  0  0  0
 44 58  1  0  0  0  0
 44 62  1  0  0  0  0
 45 71  1  0  0  0  0
 45 83  1  0  0  0  0
 45 84  1  0  0  0  0
 46 72  1  0  0  0  0
 46 85  1  0  0  0  0
 46 86  1  0  0  0  0
 47 73  1  0  0  0  0
 47 87  1  0  0  0  0
 47 88  1  0  0  0  0
 48 74  1  0  0  0  0
 48 89  1  0  0  0  0
 48 90  1  0  0  0  0
 49 55  1  0  0  0  0
 50 56  1  0  0  0  0
 53 55  2  0  0  0  0
 53 63  1  0  0  0  0
 54 56  2  0  0  0  0
 54 64  1  0  0  0  0
 55 91  1  0  0  0  0
 56 92  1  0  0  0  0
 57 58  2  0  0  0  0
 57 93  1  0  0  0  0
 58 94  1  0  0  0  0
 59 69  2  0  0  0  0
 59 75  1  0  0  0  0
 60 70  2  0  0  0  0
 60 76  1  0  0  0  0
 61 63  2  0  0  0  0
 61 95  1  0  0  0  0
 62 64  2  0  0  0  0
 62 96  1  0  0  0  0
 63 97  1  0  0  0  0
 64 98  1  0  0  0  0
 69 79  1  0  0  0  0
 70 80  1  0  0  0  0
 71103  1  0  0  0  0
 71104  1  0  0  0  0
 71105  1  0  0  0  0
 72106  1  0  0  0  0
 72107  1  0  0  0  0
 72108  1  0  0  0  0
 73109  1  0  0  0  0
 73110  1  0  0  0  0
 73111  1  0  0  0  0
 74112  1  0  0  0  0
 74113  1  0  0  0  0
 74114  1  0  0  0  0
 75 77  2  0  0  0  0
 75115  1  0  0  0  0
 76 78  2  0  0  0  0
 76116  1  0  0  0  0
 77 81  1  0  0  0  0
 78 82  1  0  0  0  0
 79 81  2  0  0  0  0
 79117  1  0  0  0  0
 80 82  2  0  0  0  0
 80118  1  0  0  0  0
 81119  1  0  0  0  0
 82120  1  0  0  0  0
M  CHG  8   7   1   8   1   9   1  10   1  11   1  12   1  13  -1  14  -1
M  CHG  4  19  -1  20  -1  25  -1  26  -1
M  END
> <PUBCHEM_COMPOUND_CID>
6436733

> <PUBCHEM_COMPOUND_CANONICALIZED>
1

> <PUBCHEM_CACTVS_COMPLEXITY>
2380

> <PUBCHEM_CACTVS_HBOND_ACCEPTOR>
30

> <PUBCHEM_CACTVS_HBOND_DONOR>
4

> <PUBCHEM_CACTVS_ROTATABLE_BOND>
16

> <PUBCHEM_CACTVS_SUBSKEYS>
AAADcfB//jBwAAAAAAAAAAAAAAAAAAAAAAA8eMGCAAAAAAAB9AAAHAQQAAAADAjBWAQz0YfIEAKgAiRCZHDCAEkhAoAJiBwIZIiIKCLAmZGEIAxokALIyCcQgAAOCAgAACAEAQAQEAAAQAgCAAAAAAAAAA==

> <PUBCHEM_IUPAC_OPENEYE_NAME>
hexasodium;2-[[4-(diethylamino)-6-[4-[(E)-2-[4-[[4-(diethylamino)-6-(2,5-disulfonatoanilino)-1,3,5-triazin-2-yl]amino]-2-sulfonato-phenyl]vinyl]-3-sulfonato-anilino]-1,3,5-triazin-2-yl]amino]benzene-1,4-disulfonate

> <PUBCHEM_IUPAC_CAS_NAME>
hexasodium;2-[[4-(diethylamino)-6-[4-[(E)-2-[4-[[4-(diethylamino)-6-(2,5-disulfonatoanilino)-1,3,5-triazin-2-yl]amino]-2-sulfonatophenyl]ethenyl]-3-sulfonatoanilino]-1,3,5-triazin-2-yl]amino]benzene-1,4-disulfonate

> <PUBCHEM_IUPAC_NAME_MARKUP>
hexasodium;2-[[4-(diethylamino)-6-[4-[(<I>E</I>)-2-[4-[[4-(diethylamino)-6-(2,5-disulfonatoanilino)-1,3,5-triazin-2-yl]amino]-2-sulfonatophenyl]ethenyl]-3-sulfonatoanilino]-1,3,5-triazin-2-yl]amino]benzene-1,4-disulfonate

> <PUBCHEM_IUPAC_NAME>
hexasodium;2-[[4-(diethylamino)-6-[4-[(E)-2-[4-[[4-(diethylamino)-6-(2,5-disulfonatoanilino)-1,3,5-triazin-2-yl]amino]-2-sulfonatophenyl]ethenyl]-3-sulfonatoanilino]-1,3,5-triazin-2-yl]amino]benzene-1,4-disulfonate

> <PUBCHEM_IUPAC_SYSTEMATIC_NAME>
hexasodium;2-[[4-(diethylamino)-6-[[4-[(E)-2-[4-[[4-(diethylamino)-6-[(2,5-disulfonatophenyl)amino]-1,3,5-triazin-2-yl]amino]-2-sulfonato-phenyl]ethenyl]-3-sulfonato-phenyl]amino]-1,3,5-triazin-2-yl]amino]benzene-1,4-disulfonate

> <PUBCHEM_IUPAC_TRADITIONAL_NAME>
hexasodium;2-[[4-(diethylamino)-6-[4-[(E)-2-[4-[[4-(diethylamino)-6-(2,5-disulfonatoanilino)-s-triazin-2-yl]amino]-2-sulfonato-phenyl]vinyl]-3-sulfonato-anilino]-s-triazin-2-yl]amino]benzene-1,4-disulfonate

> <PUBCHEM_IUPAC_INCHI>
InChI=1S/C40H44N12O18S6.6Na/c1-5-51(6-2)39-47-35(45-37(49-39)43-29-21-27(71(53,54)55)15-17-31(29)73(59,60)61)41-25-13-11-23(33(19-25)75(65,66)67)9-10-24-12-14-26(20-34(24)76(68,69)70)42-36-46-38(50-40(48-36)52(7-3)8-4)44-30-22-28(72(56,57)58)16-18-32(30)74(62,63)64;;;;;;/h9-22H,5-8H2,1-4H3,(H,53,54,55)(H,56,57,58)(H,59,60,61)(H,62,63,64)(H,65,66,67)(H,68,69,70)(H2,41,43,45,47,49)(H2,42,44,46,48,50);;;;;;/q;6*+1/p-6/b10-9+;;;;;;

> <PUBCHEM_IUPAC_INCHIKEY>
KMPSLWWDIJFERN-PTNBLCRGSA-H

> <PUBCHEM_EXACT_MASS>
1304.0137451

> <PUBCHEM_MOLECULAR_FORMULA>
C40H38N12Na6O18S6

> <PUBCHEM_MOLECULAR_WEIGHT>
1305.1

> <PUBCHEM_SMILES>
CCN(CC)C1=NC(=NC(=N1)NC2=C(C=CC(=C2)S(=O)(=O)[O-])S(=O)(=O)[O-])NC3=CC(=C(C=C3)/C=C/C4=C(C=C(C=C4)NC5=NC(=NC(=N5)N(CC)CC)NC6=C(C=CC(=C6)S(=O)(=O)[O-])S(=O)(=O)[O-])S(=O)(=O)[O-])S(=O)(=O)[O-].[Na+].[Na+].[Na+].[Na+].[Na+].[Na+]

> <PUBCHEM_CONNECTIVITY_SMILES>
CCN(CC)C1=NC(=NC(=N1)NC2=C(C=CC(=C2)S(=O)(=O)[O-])S(=O)(=O)[O-])NC3=CC(=C(C=C3)C=CC4=C(C=C(C=C4)NC5=NC(=NC(=N5)N(CC)CC)NC6=C(C=CC(=C6)S(=O)(=O)[O-])S(=O)(=O)[O-])S(=O)(=O)[O-])S(=O)(=O)[O-].[Na+].[Na+].[Na+].[Na+].[Na+].[Na+]

> <PUBCHEM_CACTVS_TPSA>
525

> <PUBCHEM_MONOISOTOPIC_WEIGHT>
1304.0137451

> <PUBCHEM_TOTAL_CHARGE>
0

> <PUBCHEM_HEAVY_ATOM_COUNT>
82

> <PUBCHEM_ATOM_DEF_STEREO_COUNT>
0

> <PUBCHEM_ATOM_UDEF_STEREO_COUNT>
0

> <PUBCHEM_BOND_DEF_STEREO_COUNT>
1

> <PUBCHEM_BOND_UDEF_STEREO_COUNT>
0

> <PUBCHEM_ISOTOPIC_ATOM_COUNT>
0

> <PUBCHEM_COMPONENT_COUNT>
7

> <PUBCHEM_CACTVS_TAUTO_COUNT>
-1

> <PUBCHEM_COORDINATE_TYPE>
1
5
255

> <PUBCHEM_BONDANNOTATIONS>
37  51  8
37  65  8
38  52  8
38  66  8
39  51  8
39  67  8
40  52  8
40  68  8
41  65  8
41  67  8
42  66  8
42  68  8
43  49  8
43  61  8
44  50  8
44  62  8
49  55  8
50  56  8
53  55  8
53  63  8
54  56  8
54  64  8
59  69  8
59  75  8
60  70  8
60  76  8
61  63  8
62  64  8
69  79  8
70  80  8
75  77  8
76  78  8
77  81  8
78  82  8
79  81  8
80  82  8

$$$$
