6454250
  -OEChem-05122610052D

 63 63  0     1  0  0  0  0  0999 V2000
   11.8681    3.0785    0.0000 W   0  0  0  0  0  0  0  0  0  0  0  0
   11.0021    5.5785    0.0000 P   0  0  3  0  0  0  0  0  0  0  0  0
   11.8681    4.0785    0.0000 O   0  0  0  0  0  0  0  0  0  0  0  0
   11.0021    4.5785    0.0000 O   0  0  0  0  0  0  0  0  0  0  0  0
   11.8681    2.0785    0.0000 O   0  0  0  0  0  0  0  0  0  0  0  0
   12.7341    2.5785    0.0000 O   0  0  0  0  0  0  0  0  0  0  0  0
   12.7341    3.5785    0.0000 O   0  0  0  0  0  0  0  0  0  0  0  0
   11.0021    6.5785    0.0000 O   0  0  0  0  0  0  0  0  0  0  0  0
   10.0021    5.5785    0.0000 O   0  5  0  0  0  0  0  0  0  0  0  0
   12.0021    5.5785    0.0000 O   0  0  0  0  0  0  0  0  0  0  0  0
    6.5991    7.0369    0.0000 N   0  0  0  0  0  0  0  0  0  0  0  0
    3.1350    1.0369    0.0000 N   0  3  0  0  0  0  0  0  0  0  0  0
    3.1350    5.0369    0.0000 C   0  0  0  0  0  0  0  0  0  0  0  0
    4.0010    5.5369    0.0000 C   0  0  0  0  0  0  0  0  0  0  0  0
    3.1350    4.0369    0.0000 C   0  0  0  0  0  0  0  0  0  0  0  0
    2.2690    5.5369    0.0000 C   0  0  0  0  0  0  0  0  0  0  0  0
    5.7331    6.5369    0.0000 C   0  0  0  0  0  0  0  0  0  0  0  0
    4.8671    5.0369    0.0000 C   0  0  0  0  0  0  0  0  0  0  0  0
    4.0010    6.5369    0.0000 C   0  0  0  0  0  0  0  0  0  0  0  0
    4.0010    3.5369    0.0000 C   0  0  0  0  0  0  0  0  0  0  0  0
    2.2690    3.5369    0.0000 C   0  0  0  0  0  0  0  0  0  0  0  0
    3.1350    2.0369    0.0000 C   0  0  0  0  0  0  0  0  0  0  0  0
    5.7331    5.5369    0.0000 C   0  0  0  0  0  0  0  0  0  0  0  0
    4.8671    7.0369    0.0000 C   0  0  0  0  0  0  0  0  0  0  0  0
    4.0010    2.5369    0.0000 C   0  0  0  0  0  0  0  0  0  0  0  0
    2.2690    2.5369    0.0000 C   0  0  0  0  0  0  0  0  0  0  0  0
    1.4030    5.0369    0.0000 C   0  0  0  0  0  0  0  0  0  0  0  0
    2.2690    6.5369    0.0000 C   0  0  0  0  0  0  0  0  0  0  0  0
    0.5369    5.5369    0.0000 C   0  0  0  0  0  0  0  0  0  0  0  0
    1.4030    7.0369    0.0000 C   0  0  0  0  0  0  0  0  0  0  0  0
    6.5991    8.0369    0.0000 C   0  0  0  0  0  0  0  0  0  0  0  0
    7.4651    6.5369    0.0000 C   0  0  0  0  0  0  0  0  0  0  0  0
    2.2690    0.5369    0.0000 C   0  0  0  0  0  0  0  0  0  0  0  0
    4.0010    0.5369    0.0000 C   0  0  0  0  0  0  0  0  0  0  0  0
    0.5369    6.5369    0.0000 C   0  0  0  0  0  0  0  0  0  0  0  0
    4.8671    4.4169    0.0000 H   0  0  0  0  0  0  0  0  0  0  0  0
    3.4641    6.8469    0.0000 H   0  0  0  0  0  0  0  0  0  0  0  0
    4.5380    3.8469    0.0000 H   0  0  0  0  0  0  0  0  0  0  0  0
    1.7321    3.8469    0.0000 H   0  0  0  0  0  0  0  0  0  0  0  0
    6.2700    5.2269    0.0000 H   0  0  0  0  0  0  0  0  0  0  0  0
    4.8671    7.6569    0.0000 H   0  0  0  0  0  0  0  0  0  0  0  0
    4.5380    2.2269    0.0000 H   0  0  0  0  0  0  0  0  0  0  0  0
    1.7321    2.2269    0.0000 H   0  0  0  0  0  0  0  0  0  0  0  0
    1.4030    4.4169    0.0000 H   0  0  0  0  0  0  0  0  0  0  0  0
    2.8059    6.8469    0.0000 H   0  0  0  0  0  0  0  0  0  0  0  0
    0.0000    5.2269    0.0000 H   0  0  0  0  0  0  0  0  0  0  0  0
    1.4030    7.6569    0.0000 H   0  0  0  0  0  0  0  0  0  0  0  0
    7.2191    8.0369    0.0000 H   0  0  0  0  0  0  0  0  0  0  0  0
    6.5991    8.6569    0.0000 H   0  0  0  0  0  0  0  0  0  0  0  0
    5.9791    8.0369    0.0000 H   0  0  0  0  0  0  0  0  0  0  0  0
    7.1551    6.0000    0.0000 H   0  0  0  0  0  0  0  0  0  0  0  0
    8.0021    6.2269    0.0000 H   0  0  0  0  0  0  0  0  0  0  0  0
    7.7751    7.0739    0.0000 H   0  0  0  0  0  0  0  0  0  0  0  0
    1.9590    1.0739    0.0000 H   0  0  0  0  0  0  0  0  0  0  0  0
    1.7321    0.2269    0.0000 H   0  0  0  0  0  0  0  0  0  0  0  0
    2.5790    0.0000    0.0000 H   0  0  0  0  0  0  0  0  0  0  0  0
    3.6910    0.0000    0.0000 H   0  0  0  0  0  0  0  0  0  0  0  0
    4.5380    0.2269    0.0000 H   0  0  0  0  0  0  0  0  0  0  0  0
    4.3110    1.0739    0.0000 H   0  0  0  0  0  0  0  0  0  0  0  0
    0.0000    6.8469    0.0000 H   0  0  0  0  0  0  0  0  0  0  0  0
   12.4050    4.3885    0.0000 H   0  0  0  0  0  0  0  0  0  0  0  0
   11.3312    1.7685    0.0000 H   0  0  0  0  0  0  0  0  0  0  0  0
   10.4651    6.8885    0.0000 H   0  0  0  0  0  0  0  0  0  0  0  0
  1  5  1  0  0  0  0
  1  6  2  0  0  0  0
  1  7  2  0  0  0  0
  2  4  1  0  0  0  0
  2  8  1  0  0  0  0
  2  9  1  0  0  0  0
  2 10  2  0  0  0  0
  3  4  1  0  0  0  0
  3 61  1  0  0  0  0
  5 62  1  0  0  0  0
  8 63  1  0  0  0  0
 11 17  1  0  0  0  0
 11 31  1  0  0  0  0
 11 32  1  0  0  0  0
 12 22  2  0  0  0  0
 12 33  1  0  0  0  0
 12 34  1  0  0  0  0
 13 14  1  0  0  0  0
 13 15  2  0  0  0  0
 13 16  1  0  0  0  0
 14 18  2  0  0  0  0
 14 19  1  0  0  0  0
 15 20  1  0  0  0  0
 15 21  1  0  0  0  0
 16 27  2  0  0  0  0
 16 28  1  0  0  0  0
 17 23  2  0  0  0  0
 17 24  1  0  0  0  0
 18 23  1  0  0  0  0
 18 36  1  0  0  0  0
 19 24  2  0  0  0  0
 19 37  1  0  0  0  0
 20 25  2  0  0  0  0
 20 38  1  0  0  0  0
 21 26  2  0  0  0  0
 21 39  1  0  0  0  0
 22 25  1  0  0  0  0
 22 26  1  0  0  0  0
 23 40  1  0  0  0  0
 24 41  1  0  0  0  0
 25 42  1  0  0  0  0
 26 43  1  0  0  0  0
 27 29  1  0  0  0  0
 27 44  1  0  0  0  0
 28 30  2  0  0  0  0
 28 45  1  0  0  0  0
 29 35  2  0  0  0  0
 29 46  1  0  0  0  0
 30 35  1  0  0  0  0
 30 47  1  0  0  0  0
 31 48  1  0  0  0  0
 31 49  1  0  0  0  0
 31 50  1  0  0  0  0
 32 51  1  0  0  0  0
 32 52  1  0  0  0  0
 32 53  1  0  0  0  0
 33 54  1  0  0  0  0
 33 55  1  0  0  0  0
 33 56  1  0  0  0  0
 34 57  1  0  0  0  0
 34 58  1  0  0  0  0
 34 59  1  0  0  0  0
 35 60  1  0  0  0  0
M  CHG  2   9  -1  12   1
M  END
> <PUBCHEM_COMPOUND_CID>
6454250

> <PUBCHEM_COMPOUND_CANONICALIZED>
1

> <PUBCHEM_CACTVS_COMPLEXITY>
672

> <PUBCHEM_CACTVS_HBOND_ACCEPTOR>
9

> <PUBCHEM_CACTVS_HBOND_DONOR>
3

> <PUBCHEM_CACTVS_ROTATABLE_BOND>
4

> <PUBCHEM_CACTVS_SUBSKEYS>
AAADceB7PAIAAAAAAAAAQAAAAAAAAAAAAAAwYIAAAAAAAAABQAAAHAAADCAADAiBGAQywIMAABCgQyRiRICCAAAhAgAIiAAYZJgIICLAkZGEIAhggABIyAcQgMAOCAAAAAAAAAAQAAAAAAAAAAAAAAAAAA==

> <PUBCHEM_IUPAC_OPENEYE_NAME>
[4-[[4-(dimethylamino)phenyl]-phenyl-methylene]cyclohexa-2,5-dien-1-ylidene]-dimethyl-ammonium;hydroxy(dioxo)tungsten;hydroxy hydrogen phosphate

> <PUBCHEM_IUPAC_CAS_NAME>
[4-[[4-(dimethylamino)phenyl]-phenylmethylidene]-1-cyclohexa-2,5-dienylidene]-dimethylammonium;hydroxy(dioxo)tungsten;hydroxy hydrogen phosphate

> <PUBCHEM_IUPAC_NAME_MARKUP>
[4-[[4-(dimethylamino)phenyl]-phenylmethylidene]cyclohexa-2,5-dien-1-ylidene]-dimethylazanium;hydroxy(dioxo)tungsten;hydroxy hydrogen phosphate

> <PUBCHEM_IUPAC_NAME>
[4-[[4-(dimethylamino)phenyl]-phenylmethylidene]cyclohexa-2,5-dien-1-ylidene]-dimethylazanium;hydroxy(dioxo)tungsten;hydroxy hydrogen phosphate

> <PUBCHEM_IUPAC_SYSTEMATIC_NAME>
[4-[[4-(dimethylamino)phenyl]-phenyl-methylidene]cyclohexa-2,5-dien-1-ylidene]-dimethyl-azanium;oxidanyl-bis(oxidanylidene)tungsten;oxidanyl hydrogen phosphate

> <PUBCHEM_IUPAC_TRADITIONAL_NAME>
[4-[[4-(dimethylamino)phenyl]-phenyl-methylene]cyclohexa-2,5-dien-1-ylidene]-dimethyl-ammonium;hydroxy(diketo)tungsten;hydroxy hydrogen phosphate

> <PUBCHEM_IUPAC_INCHI>
InChI=1S/C23H25N2.H3O5P.H2O.2O.W/c1-24(2)21-14-10-19(11-15-21)23(18-8-6-5-7-9-18)20-12-16-22(17-13-20)25(3)4;1-5-6(2,3)4;;;;/h5-17H,1-4H3;1H,(H2,2,3,4);1H2;;;/q+1;;;;;+1/p-2

> <PUBCHEM_IUPAC_INCHIKEY>
VIUVDLPEWDNAIP-UHFFFAOYSA-L

> <PUBCHEM_EXACT_MASS>
675.109261

> <PUBCHEM_MOLECULAR_FORMULA>
C23H28N2O8PW

> <PUBCHEM_MOLECULAR_WEIGHT>
675.3

> <PUBCHEM_SMILES>
CN(C)C1=CC=C(C=C1)C(=C2C=CC(=[N+](C)C)C=C2)C3=CC=CC=C3.OOP(=O)(O)[O-].O[W](=O)=O

> <PUBCHEM_CONNECTIVITY_SMILES>
CN(C)C1=CC=C(C=C1)C(=C2C=CC(=[N+](C)C)C=C2)C3=CC=CC=C3.OOP(=O)(O)[O-].O[W](=O)=O

> <PUBCHEM_CACTVS_TPSA>
150

> <PUBCHEM_MONOISOTOPIC_WEIGHT>
675.109261

> <PUBCHEM_TOTAL_CHARGE>
0

> <PUBCHEM_HEAVY_ATOM_COUNT>
35

> <PUBCHEM_ATOM_DEF_STEREO_COUNT>
0

> <PUBCHEM_ATOM_UDEF_STEREO_COUNT>
0

> <PUBCHEM_BOND_DEF_STEREO_COUNT>
0

> <PUBCHEM_BOND_UDEF_STEREO_COUNT>
0

> <PUBCHEM_ISOTOPIC_ATOM_COUNT>
0

> <PUBCHEM_COMPONENT_COUNT>
3

> <PUBCHEM_CACTVS_TAUTO_COUNT>
-1

> <PUBCHEM_NONSTANDARDBOND>
1  3  6

> <PUBCHEM_COORDINATE_TYPE>
1
5
255

> <PUBCHEM_BONDANNOTATIONS>
14  18  8
14  19  8
16  27  8
16  28  8
17  23  8
17  24  8
18  23  8
19  24  8
27  29  8
28  30  8
29  35  8
30  35  8

$$$$
