6485064
  -OEChem-05122608082D

 29 30  0     0  0  0  0  0  0999 V2000
    6.8671    2.3100    0.0000 O   0  0  0  0  0  0  0  0  0  0  0  0
    3.4030    1.3100    0.0000 O   0  0  0  0  0  0  0  0  0  0  0  0
    5.1350    1.3100    0.0000 N   0  0  0  0  0  0  0  0  0  0  0  0
    2.5369   -2.1900    0.0000 N   0  0  0  0  0  0  0  0  0  0  0  0
    5.1350    2.3100    0.0000 C   0  0  0  0  0  0  0  0  0  0  0  0
    6.0010    0.8100    0.0000 C   0  0  0  0  0  0  0  0  0  0  0  0
    6.0010    2.8100    0.0000 C   0  0  0  0  0  0  0  0  0  0  0  0
    6.8671    1.3100    0.0000 C   0  0  0  0  0  0  0  0  0  0  0  0
    4.2690    0.8100    0.0000 C   0  0  0  0  0  0  0  0  0  0  0  0
    4.2690   -0.1900    0.0000 C   0  0  0  0  0  0  0  0  0  0  0  0
    3.4030   -0.6900    0.0000 C   0  0  0  0  0  0  0  0  0  0  0  0
    5.1350   -0.6900    0.0000 C   0  0  0  0  0  0  0  0  0  0  0  0
    3.4030   -1.6900    0.0000 C   0  0  0  0  0  0  0  0  0  0  0  0
    5.1350   -1.6900    0.0000 C   0  0  0  0  0  0  0  0  0  0  0  0
    4.2690   -2.1900    0.0000 C   0  0  0  0  0  0  0  0  0  0  0  0
    4.9230    2.8926    0.0000 H   0  0  0  0  0  0  0  0  0  0  0  0
    4.5244    2.2023    0.0000 H   0  0  0  0  0  0  0  0  0  0  0  0
    5.6025    0.3351    0.0000 H   0  0  0  0  0  0  0  0  0  0  0  0
    6.3996    0.3351    0.0000 H   0  0  0  0  0  0  0  0  0  0  0  0
    6.3996    3.2850    0.0000 H   0  0  0  0  0  0  0  0  0  0  0  0
    5.6025    3.2850    0.0000 H   0  0  0  0  0  0  0  0  0  0  0  0
    7.0791    0.7274    0.0000 H   0  0  0  0  0  0  0  0  0  0  0  0
    7.4776    1.4177    0.0000 H   0  0  0  0  0  0  0  0  0  0  0  0
    2.8660   -0.3800    0.0000 H   0  0  0  0  0  0  0  0  0  0  0  0
    5.6720   -0.3800    0.0000 H   0  0  0  0  0  0  0  0  0  0  0  0
    5.6720   -2.0000    0.0000 H   0  0  0  0  0  0  0  0  0  0  0  0
    4.2690   -2.8100    0.0000 H   0  0  0  0  0  0  0  0  0  0  0  0
    2.5369   -2.8100    0.0000 H   0  0  0  0  0  0  0  0  0  0  0  0
    2.0000   -1.8800    0.0000 H   0  0  0  0  0  0  0  0  0  0  0  0
  1  7  1  0  0  0  0
  1  8  1  0  0  0  0
  2  9  2  0  0  0  0
  3  5  1  0  0  0  0
  3  6  1  0  0  0  0
  3  9  1  0  0  0  0
  4 13  1  0  0  0  0
  4 28  1  0  0  0  0
  4 29  1  0  0  0  0
  5  7  1  0  0  0  0
  5 16  1  0  0  0  0
  5 17  1  0  0  0  0
  6  8  1  0  0  0  0
  6 18  1  0  0  0  0
  6 19  1  0  0  0  0
  7 20  1  0  0  0  0
  7 21  1  0  0  0  0
  8 22  1  0  0  0  0
  8 23  1  0  0  0  0
  9 10  1  0  0  0  0
 10 11  2  0  0  0  0
 10 12  1  0  0  0  0
 11 13  1  0  0  0  0
 11 24  1  0  0  0  0
 12 14  2  0  0  0  0
 12 25  1  0  0  0  0
 13 15  2  0  0  0  0
 14 15  1  0  0  0  0
 14 26  1  0  0  0  0
 15 27  1  0  0  0  0
M  END
> <PUBCHEM_COMPOUND_CID>
6485064

> <PUBCHEM_COMPOUND_CANONICALIZED>
1

> <PUBCHEM_CACTVS_COMPLEXITY>
227

> <PUBCHEM_CACTVS_HBOND_ACCEPTOR>
3

> <PUBCHEM_CACTVS_HBOND_DONOR>
1

> <PUBCHEM_CACTVS_ROTATABLE_BOND>
1

> <PUBCHEM_CACTVS_SUBSKEYS>
AAADccBzMAAAAAAAAAAAAAAAAAAAAAAAAAA8QAAAAAAAAAABAAAAHgAQAAAADAjhmAYwwINABACIAiVSUACCAAAkAgAIiAEIZMgKIDKAlZGHIQhglgCYyYcciACOAAAAQAAAAAAAAACAAAAAAAAAAAAAAA==

> <PUBCHEM_IUPAC_OPENEYE_NAME>
(3-aminophenyl)-morpholino-methanone

> <PUBCHEM_IUPAC_CAS_NAME>
(3-aminophenyl)-(4-morpholinyl)methanone

> <PUBCHEM_IUPAC_NAME_MARKUP>
(3-aminophenyl)-morpholin-4-ylmethanone

> <PUBCHEM_IUPAC_NAME>
(3-aminophenyl)-morpholin-4-ylmethanone

> <PUBCHEM_IUPAC_SYSTEMATIC_NAME>
(3-aminophenyl)-morpholin-4-yl-methanone

> <PUBCHEM_IUPAC_TRADITIONAL_NAME>
(3-aminophenyl)-morpholino-methanone

> <PUBCHEM_IUPAC_INCHI>
InChI=1S/C11H14N2O2/c12-10-3-1-2-9(8-10)11(14)13-4-6-15-7-5-13/h1-3,8H,4-7,12H2

> <PUBCHEM_IUPAC_INCHIKEY>
RFFVEVKGZGRRCP-UHFFFAOYSA-N

> <PUBCHEM_XLOGP3_AA>
0.3

> <PUBCHEM_EXACT_MASS>
206.105527694

> <PUBCHEM_MOLECULAR_FORMULA>
C11H14N2O2

> <PUBCHEM_MOLECULAR_WEIGHT>
206.24

> <PUBCHEM_SMILES>
C1COCCN1C(=O)C2=CC(=CC=C2)N

> <PUBCHEM_CONNECTIVITY_SMILES>
C1COCCN1C(=O)C2=CC(=CC=C2)N

> <PUBCHEM_CACTVS_TPSA>
55.6

> <PUBCHEM_MONOISOTOPIC_WEIGHT>
206.105527694

> <PUBCHEM_TOTAL_CHARGE>
0

> <PUBCHEM_HEAVY_ATOM_COUNT>
15

> <PUBCHEM_ATOM_DEF_STEREO_COUNT>
0

> <PUBCHEM_ATOM_UDEF_STEREO_COUNT>
0

> <PUBCHEM_BOND_DEF_STEREO_COUNT>
0

> <PUBCHEM_BOND_UDEF_STEREO_COUNT>
0

> <PUBCHEM_ISOTOPIC_ATOM_COUNT>
0

> <PUBCHEM_COMPONENT_COUNT>
1

> <PUBCHEM_CACTVS_TAUTO_COUNT>
-1

> <PUBCHEM_COORDINATE_TYPE>
1
5
255

> <PUBCHEM_BONDANNOTATIONS>
10  11  8
10  12  8
11  13  8
12  14  8
13  15  8
14  15  8

$$$$
