66021
  -OEChem-05122609502D

 24 23  0     1  0  0  0  0  0999 V2000
    6.3301    0.8100    0.0000 O   0  0  0  0  0  0  0  0  0  0  0  0
    3.7321    0.3100    0.0000 O   0  0  0  0  0  0  0  0  0  0  0  0
    4.5981   -1.1900    0.0000 O   0  0  0  0  0  0  0  0  0  0  0  0
    7.1962   -0.6900    0.0000 O   0  0  0  0  0  0  0  0  0  0  0  0
    2.8660    1.8100    0.0000 O   0  0  0  0  0  0  0  0  0  0  0  0
    5.4641    0.3100    0.0000 C   0  0  3  0  0  0  0  0  0  0  0  0
    4.5981    0.8100    0.0000 C   0  0  0  0  0  0  0  0  0  0  0  0
    5.4641   -0.6900    0.0000 C   0  0  0  0  0  0  0  0  0  0  0  0
    7.1962    0.3100    0.0000 C   0  0  0  0  0  0  0  0  0  0  0  0
    2.8660    0.8100    0.0000 C   0  0  0  0  0  0  0  0  0  0  0  0
    8.0622    0.8100    0.0000 C   0  0  0  0  0  0  0  0  0  0  0  0
    2.0000    0.3100    0.0000 C   0  0  0  0  0  0  0  0  0  0  0  0
    5.4641    0.9300    0.0000 H   0  0  0  0  0  0  0  0  0  0  0  0
    4.9966    1.2850    0.0000 H   0  0  0  0  0  0  0  0  0  0  0  0
    4.1996    1.2850    0.0000 H   0  0  0  0  0  0  0  0  0  0  0  0
    5.6762   -1.2726    0.0000 H   0  0  0  0  0  0  0  0  0  0  0  0
    6.0747   -0.5823    0.0000 H   0  0  0  0  0  0  0  0  0  0  0  0
    4.5981   -1.8100    0.0000 H   0  0  0  0  0  0  0  0  0  0  0  0
    8.3722    0.2731    0.0000 H   0  0  0  0  0  0  0  0  0  0  0  0
    8.5991    1.1200    0.0000 H   0  0  0  0  0  0  0  0  0  0  0  0
    7.7522    1.3469    0.0000 H   0  0  0  0  0  0  0  0  0  0  0  0
    1.6900    0.8469    0.0000 H   0  0  0  0  0  0  0  0  0  0  0  0
    1.4631    0.0000    0.0000 H   0  0  0  0  0  0  0  0  0  0  0  0
    2.3100   -0.2269    0.0000 H   0  0  0  0  0  0  0  0  0  0  0  0
  1  6  1  0  0  0  0
  1  9  1  0  0  0  0
  2  7  1  0  0  0  0
  2 10  1  0  0  0  0
  3  8  1  0  0  0  0
  3 18  1  0  0  0  0
  4  9  2  0  0  0  0
  5 10  2  0  0  0  0
  6  7  1  0  0  0  0
  6  8  1  0  0  0  0
  6 13  1  0  0  0  0
  7 14  1  0  0  0  0
  7 15  1  0  0  0  0
  8 16  1  0  0  0  0
  8 17  1  0  0  0  0
  9 11  1  0  0  0  0
 10 12  1  0  0  0  0
 11 19  1  0  0  0  0
 11 20  1  0  0  0  0
 11 21  1  0  0  0  0
 12 22  1  0  0  0  0
 12 23  1  0  0  0  0
 12 24  1  0  0  0  0
M  END
> <PUBCHEM_COMPOUND_CID>
66021

> <PUBCHEM_COMPOUND_CANONICALIZED>
1

> <PUBCHEM_CACTVS_COMPLEXITY>
165

> <PUBCHEM_CACTVS_HBOND_ACCEPTOR>
5

> <PUBCHEM_CACTVS_HBOND_DONOR>
1

> <PUBCHEM_CACTVS_ROTATABLE_BOND>
6

> <PUBCHEM_CACTVS_SUBSKEYS>
AAADccBgOAAAAAAAAAAAAAAAAAAAAAAAAAAAAAAAAAAAAAAAAAAAGgAACAAACBSggAICCAAABgAIAACQCAAAAAAAAAAAAAAAAAABEAAAAAACQAABAAADAAAAAAAAAAAAAAAAAAAAAAAAAAAAAAAAAAAAAA==

> <PUBCHEM_IUPAC_OPENEYE_NAME>
(2-acetoxy-3-hydroxy-propyl) acetate

> <PUBCHEM_IUPAC_CAS_NAME>
acetic acid (2-acetyloxy-3-hydroxypropyl) ester

> <PUBCHEM_IUPAC_NAME_MARKUP>
(2-acetyloxy-3-hydroxypropyl) acetate

> <PUBCHEM_IUPAC_NAME>
(2-acetyloxy-3-hydroxypropyl) acetate

> <PUBCHEM_IUPAC_SYSTEMATIC_NAME>
(2-acetyloxy-3-oxidanyl-propyl) ethanoate

> <PUBCHEM_IUPAC_TRADITIONAL_NAME>
acetic acid (2-acetoxy-3-hydroxy-propyl) ester

> <PUBCHEM_IUPAC_INCHI>
InChI=1S/C7H12O5/c1-5(9)11-4-7(3-8)12-6(2)10/h7-8H,3-4H2,1-2H3

> <PUBCHEM_IUPAC_INCHIKEY>
UXDDRFCJKNROTO-UHFFFAOYSA-N

> <PUBCHEM_XLOGP3>
-0.3

> <PUBCHEM_EXACT_MASS>
176.06847348

> <PUBCHEM_MOLECULAR_FORMULA>
C7H12O5

> <PUBCHEM_MOLECULAR_WEIGHT>
176.17

> <PUBCHEM_SMILES>
CC(=O)OCC(CO)OC(=O)C

> <PUBCHEM_CONNECTIVITY_SMILES>
CC(=O)OCC(CO)OC(=O)C

> <PUBCHEM_CACTVS_TPSA>
72.8

> <PUBCHEM_MONOISOTOPIC_WEIGHT>
176.06847348

> <PUBCHEM_TOTAL_CHARGE>
0

> <PUBCHEM_HEAVY_ATOM_COUNT>
12

> <PUBCHEM_ATOM_DEF_STEREO_COUNT>
0

> <PUBCHEM_ATOM_UDEF_STEREO_COUNT>
1

> <PUBCHEM_BOND_DEF_STEREO_COUNT>
0

> <PUBCHEM_BOND_UDEF_STEREO_COUNT>
0

> <PUBCHEM_ISOTOPIC_ATOM_COUNT>
0

> <PUBCHEM_COMPONENT_COUNT>
1

> <PUBCHEM_CACTVS_TAUTO_COUNT>
-1

> <PUBCHEM_COORDINATE_TYPE>
1
5
255

> <PUBCHEM_BONDANNOTATIONS>
6  8  3

$$$$
