661275
  -OEChem-05122609412D

 30 31  0     1  0  0  0  0  0999 V2000
    4.6660   -0.9827    0.0000 N   0  0  0  0  0  0  0  0  0  0  0  0
    4.6660    1.0173    0.0000 C   0  0  3  0  0  0  0  0  0  0  0  0
    5.5321    0.5173    0.0000 C   0  0  0  0  0  0  0  0  0  0  0  0
    5.5321   -0.4827    0.0000 C   0  0  3  0  0  0  0  0  0  0  0  0
    3.8000    0.5173    0.0000 C   0  0  0  0  0  0  0  0  0  0  0  0
    3.8000   -0.4827    0.0000 C   0  0  0  0  0  0  0  0  0  0  0  0
    4.6660    2.0173    0.0000 C   0  0  0  0  0  0  0  0  0  0  0  0
    6.3981   -0.9827    0.0000 C   0  0  0  0  0  0  0  0  0  0  0  0
    2.9061   -1.0174    0.0000 C   0  0  0  0  0  0  0  0  0  0  0  0
    2.9061    1.0520    0.0000 C   0  0  0  0  0  0  0  0  0  0  0  0
    2.0000   -0.5035    0.0000 C   0  0  0  0  0  0  0  0  0  0  0  0
    2.0000    0.5381    0.0000 C   0  0  0  0  0  0  0  0  0  0  0  0
    2.9176   -2.0173    0.0000 C   0  0  0  0  0  0  0  0  0  0  0  0
    5.2030    1.3273    0.0000 H   0  0  0  0  0  0  0  0  0  0  0  0
    6.1426    0.4096    0.0000 H   0  0  0  0  0  0  0  0  0  0  0  0
    5.7441    1.0999    0.0000 H   0  0  0  0  0  0  0  0  0  0  0  0
    5.5321   -1.1027    0.0000 H   0  0  0  0  0  0  0  0  0  0  0  0
    4.6660   -1.6027    0.0000 H   0  0  0  0  0  0  0  0  0  0  0  0
    5.2860    2.0173    0.0000 H   0  0  0  0  0  0  0  0  0  0  0  0
    4.6660    2.6373    0.0000 H   0  0  0  0  0  0  0  0  0  0  0  0
    4.0460    2.0173    0.0000 H   0  0  0  0  0  0  0  0  0  0  0  0
    6.0881   -1.5196    0.0000 H   0  0  0  0  0  0  0  0  0  0  0  0
    6.9350   -1.2927    0.0000 H   0  0  0  0  0  0  0  0  0  0  0  0
    6.7081   -0.4458    0.0000 H   0  0  0  0  0  0  0  0  0  0  0  0
    2.9132    1.6719    0.0000 H   0  0  0  0  0  0  0  0  0  0  0  0
    1.4643   -0.8156    0.0000 H   0  0  0  0  0  0  0  0  0  0  0  0
    1.4643    0.8502    0.0000 H   0  0  0  0  0  0  0  0  0  0  0  0
    2.2977   -2.0245    0.0000 H   0  0  0  0  0  0  0  0  0  0  0  0
    2.9248   -2.6373    0.0000 H   0  0  0  0  0  0  0  0  0  0  0  0
    3.5376   -2.0101    0.0000 H   0  0  0  0  0  0  0  0  0  0  0  0
  1  4  1  0  0  0  0
  1  6  1  0  0  0  0
  1 18  1  0  0  0  0
  2  3  1  0  0  0  0
  2  5  1  0  0  0  0
  2  7  1  0  0  0  0
  2 14  1  0  0  0  0
  3  4  1  0  0  0  0
  3 15  1  0  0  0  0
  3 16  1  0  0  0  0
  4  8  1  0  0  0  0
  4 17  1  0  0  0  0
  5  6  1  0  0  0  0
  5 10  2  0  0  0  0
  6  9  2  0  0  0  0
  7 19  1  0  0  0  0
  7 20  1  0  0  0  0
  7 21  1  0  0  0  0
  8 22  1  0  0  0  0
  8 23  1  0  0  0  0
  8 24  1  0  0  0  0
  9 11  1  0  0  0  0
  9 13  1  0  0  0  0
 10 12  1  0  0  0  0
 10 25  1  0  0  0  0
 11 12  2  0  0  0  0
 11 26  1  0  0  0  0
 12 27  1  0  0  0  0
 13 28  1  0  0  0  0
 13 29  1  0  0  0  0
 13 30  1  0  0  0  0
M  END
> <PUBCHEM_COMPOUND_CID>
661275

> <PUBCHEM_COMPOUND_CANONICALIZED>
1

> <PUBCHEM_CACTVS_COMPLEXITY>
178

> <PUBCHEM_CACTVS_HBOND_ACCEPTOR>
1

> <PUBCHEM_CACTVS_HBOND_DONOR>
1

> <PUBCHEM_CACTVS_ROTATABLE_BOND>
0

> <PUBCHEM_CACTVS_SUBSKEYS>
AAADceByAAAAAAAAAAAAAAAAAAAAAAAAAAA8QAAAAAAAAACxAAAAHAAQAAAADSjBGAQywILAAACAAiRCQACCAAAhAAAIiIAIRIgIICLAkZGEIAhgkADIyAcQgMAOgAACAAACAAAAAAQAAAQAAAAAAAAAAA==

> <PUBCHEM_IUPAC_OPENEYE_NAME>
2,4,8-trimethyl-1,2,3,4-tetrahydroquinoline

> <PUBCHEM_IUPAC_CAS_NAME>
2,4,8-trimethyl-1,2,3,4-tetrahydroquinoline

> <PUBCHEM_IUPAC_NAME_MARKUP>
2,4,8-trimethyl-1,2,3,4-tetrahydroquinoline

> <PUBCHEM_IUPAC_NAME>
2,4,8-trimethyl-1,2,3,4-tetrahydroquinoline

> <PUBCHEM_IUPAC_SYSTEMATIC_NAME>
2,4,8-trimethyl-1,2,3,4-tetrahydroquinoline

> <PUBCHEM_IUPAC_TRADITIONAL_NAME>
2,4,8-trimethyl-1,2,3,4-tetrahydroquinoline

> <PUBCHEM_IUPAC_INCHI>
InChI=1S/C12H17N/c1-8-5-4-6-11-9(2)7-10(3)13-12(8)11/h4-6,9-10,13H,7H2,1-3H3

> <PUBCHEM_IUPAC_INCHIKEY>
WHMVYUBNTUXFMP-UHFFFAOYSA-N

> <PUBCHEM_XLOGP3_AA>
3.4

> <PUBCHEM_EXACT_MASS>
175.136099547

> <PUBCHEM_MOLECULAR_FORMULA>
C12H17N

> <PUBCHEM_MOLECULAR_WEIGHT>
175.27

> <PUBCHEM_SMILES>
CC1CC(NC2=C(C=CC=C12)C)C

> <PUBCHEM_CONNECTIVITY_SMILES>
CC1CC(NC2=C(C=CC=C12)C)C

> <PUBCHEM_CACTVS_TPSA>
12

> <PUBCHEM_MONOISOTOPIC_WEIGHT>
175.136099547

> <PUBCHEM_TOTAL_CHARGE>
0

> <PUBCHEM_HEAVY_ATOM_COUNT>
13

> <PUBCHEM_ATOM_DEF_STEREO_COUNT>
0

> <PUBCHEM_ATOM_UDEF_STEREO_COUNT>
2

> <PUBCHEM_BOND_DEF_STEREO_COUNT>
0

> <PUBCHEM_BOND_UDEF_STEREO_COUNT>
0

> <PUBCHEM_ISOTOPIC_ATOM_COUNT>
0

> <PUBCHEM_COMPONENT_COUNT>
1

> <PUBCHEM_CACTVS_TAUTO_COUNT>
-1

> <PUBCHEM_COORDINATE_TYPE>
1
5
255

> <PUBCHEM_BONDANNOTATIONS>
10  12  8
11  12  8
2  7  3
4  8  3
5  10  8
5  6  8
6  9  8
9  11  8

$$$$
