6641
  -OEChem-05122608092D

 42 43  0     0  0  0  0  0  0999 V2000
    3.0000   -0.2500    0.0000 O   0  0  0  0  0  0  0  0  0  0  0  0
    3.8660    0.2500    0.0000 O   0  0  0  0  0  0  0  0  0  0  0  0
    3.0000   -1.2500    0.0000 C   0  0  0  0  0  0  0  0  0  0  0  0
    3.8660    1.2500    0.0000 C   0  0  0  0  0  0  0  0  0  0  0  0
    3.0000   -2.2500    0.0000 C   0  0  0  0  0  0  0  0  0  0  0  0
    3.8660    2.2500    0.0000 C   0  0  0  0  0  0  0  0  0  0  0  0
    4.0000   -1.2500    0.0000 C   0  0  0  0  0  0  0  0  0  0  0  0
    2.0000   -1.2500    0.0000 C   0  0  0  0  0  0  0  0  0  0  0  0
    4.8660    1.2500    0.0000 C   0  0  0  0  0  0  0  0  0  0  0  0
    2.8660    1.2500    0.0000 C   0  0  0  0  0  0  0  0  0  0  0  0
    3.8660   -2.7500    0.0000 C   0  0  0  0  0  0  0  0  0  0  0  0
    3.0000    2.7500    0.0000 C   0  0  0  0  0  0  0  0  0  0  0  0
    2.1340   -2.7500    0.0000 C   0  0  0  0  0  0  0  0  0  0  0  0
    4.7321    2.7500    0.0000 C   0  0  0  0  0  0  0  0  0  0  0  0
    3.8660   -3.7500    0.0000 C   0  0  0  0  0  0  0  0  0  0  0  0
    3.0000    3.7500    0.0000 C   0  0  0  0  0  0  0  0  0  0  0  0
    2.1340   -3.7500    0.0000 C   0  0  0  0  0  0  0  0  0  0  0  0
    4.7321    3.7500    0.0000 C   0  0  0  0  0  0  0  0  0  0  0  0
    3.0000   -4.2500    0.0000 C   0  0  0  0  0  0  0  0  0  0  0  0
    3.8660    4.2500    0.0000 C   0  0  0  0  0  0  0  0  0  0  0  0
    4.0000   -1.8700    0.0000 H   0  0  0  0  0  0  0  0  0  0  0  0
    4.6200   -1.2500    0.0000 H   0  0  0  0  0  0  0  0  0  0  0  0
    4.0000   -0.6300    0.0000 H   0  0  0  0  0  0  0  0  0  0  0  0
    2.0000   -0.6300    0.0000 H   0  0  0  0  0  0  0  0  0  0  0  0
    1.3800   -1.2500    0.0000 H   0  0  0  0  0  0  0  0  0  0  0  0
    2.0000   -1.8700    0.0000 H   0  0  0  0  0  0  0  0  0  0  0  0
    4.8660    0.6300    0.0000 H   0  0  0  0  0  0  0  0  0  0  0  0
    5.4860    1.2500    0.0000 H   0  0  0  0  0  0  0  0  0  0  0  0
    4.8660    1.8700    0.0000 H   0  0  0  0  0  0  0  0  0  0  0  0
    2.8660    1.8700    0.0000 H   0  0  0  0  0  0  0  0  0  0  0  0
    2.2460    1.2500    0.0000 H   0  0  0  0  0  0  0  0  0  0  0  0
    2.8660    0.6300    0.0000 H   0  0  0  0  0  0  0  0  0  0  0  0
    4.4030   -2.4400    0.0000 H   0  0  0  0  0  0  0  0  0  0  0  0
    2.4631    2.4400    0.0000 H   0  0  0  0  0  0  0  0  0  0  0  0
    1.5970   -2.4400    0.0000 H   0  0  0  0  0  0  0  0  0  0  0  0
    5.2690    2.4400    0.0000 H   0  0  0  0  0  0  0  0  0  0  0  0
    4.4030   -4.0600    0.0000 H   0  0  0  0  0  0  0  0  0  0  0  0
    2.4631    4.0600    0.0000 H   0  0  0  0  0  0  0  0  0  0  0  0
    1.5970   -4.0600    0.0000 H   0  0  0  0  0  0  0  0  0  0  0  0
    5.2690    4.0600    0.0000 H   0  0  0  0  0  0  0  0  0  0  0  0
    3.0000   -4.8700    0.0000 H   0  0  0  0  0  0  0  0  0  0  0  0
    3.8660    4.8700    0.0000 H   0  0  0  0  0  0  0  0  0  0  0  0
  1  2  1  0  0  0  0
  1  3  1  0  0  0  0
  2  4  1  0  0  0  0
  3  5  1  0  0  0  0
  3  7  1  0  0  0  0
  3  8  1  0  0  0  0
  4  6  1  0  0  0  0
  4  9  1  0  0  0  0
  4 10  1  0  0  0  0
  5 11  2  0  0  0  0
  5 13  1  0  0  0  0
  6 12  2  0  0  0  0
  6 14  1  0  0  0  0
  7 21  1  0  0  0  0
  7 22  1  0  0  0  0
  7 23  1  0  0  0  0
  8 24  1  0  0  0  0
  8 25  1  0  0  0  0
  8 26  1  0  0  0  0
  9 27  1  0  0  0  0
  9 28  1  0  0  0  0
  9 29  1  0  0  0  0
 10 30  1  0  0  0  0
 10 31  1  0  0  0  0
 10 32  1  0  0  0  0
 11 15  1  0  0  0  0
 11 33  1  0  0  0  0
 12 16  1  0  0  0  0
 12 34  1  0  0  0  0
 13 17  2  0  0  0  0
 13 35  1  0  0  0  0
 14 18  2  0  0  0  0
 14 36  1  0  0  0  0
 15 19  2  0  0  0  0
 15 37  1  0  0  0  0
 16 20  2  0  0  0  0
 16 38  1  0  0  0  0
 17 19  1  0  0  0  0
 17 39  1  0  0  0  0
 18 20  1  0  0  0  0
 18 40  1  0  0  0  0
 19 41  1  0  0  0  0
 20 42  1  0  0  0  0
M  END
> <PUBCHEM_COMPOUND_CID>
6641

> <PUBCHEM_COMPOUND_CANONICALIZED>
1

> <PUBCHEM_CACTVS_COMPLEXITY>
254

> <PUBCHEM_CACTVS_HBOND_ACCEPTOR>
2

> <PUBCHEM_CACTVS_HBOND_DONOR>
0

> <PUBCHEM_CACTVS_ROTATABLE_BOND>
5

> <PUBCHEM_CACTVS_SUBSKEYS>
AAADceB4MAAAAAAAAAAAAAAAAAAAAAAAAAAwYAAAAAAAAAABQAAAGgAABAAADESAmAAyAIAAAACAAiBCAAACAAAgAAAIiAAACIgIJiKAERCAMAAkwAEIiAeAwOAOgAAAAAAAAAAAAAAAAAAAAAAAAAAAAA==

> <PUBCHEM_IUPAC_OPENEYE_NAME>
[1-methyl-1-(1-methyl-1-phenyl-ethyl)peroxy-ethyl]benzene

> <PUBCHEM_IUPAC_CAS_NAME>
2-(2-phenylpropan-2-yldioxy)propan-2-ylbenzene

> <PUBCHEM_IUPAC_NAME_MARKUP>
2-(2-phenylpropan-2-ylperoxy)propan-2-ylbenzene

> <PUBCHEM_IUPAC_NAME>
2-(2-phenylpropan-2-ylperoxy)propan-2-ylbenzene

> <PUBCHEM_IUPAC_SYSTEMATIC_NAME>
2-(2-phenylpropan-2-ylperoxy)propan-2-ylbenzene

> <PUBCHEM_IUPAC_TRADITIONAL_NAME>
(1-cumylperoxy-1-methyl-ethyl)benzene

> <PUBCHEM_IUPAC_INCHI>
InChI=1S/C18H22O2/c1-17(2,15-11-7-5-8-12-15)19-20-18(3,4)16-13-9-6-10-14-16/h5-14H,1-4H3

> <PUBCHEM_IUPAC_INCHIKEY>
XMNIXWIUMCBBBL-UHFFFAOYSA-N

> <PUBCHEM_XLOGP3_AA>
4.3

> <PUBCHEM_EXACT_MASS>
270.161979940

> <PUBCHEM_MOLECULAR_FORMULA>
C18H22O2

> <PUBCHEM_MOLECULAR_WEIGHT>
270.4

> <PUBCHEM_SMILES>
CC(C)(C1=CC=CC=C1)OOC(C)(C)C2=CC=CC=C2

> <PUBCHEM_CONNECTIVITY_SMILES>
CC(C)(C1=CC=CC=C1)OOC(C)(C)C2=CC=CC=C2

> <PUBCHEM_CACTVS_TPSA>
18.5

> <PUBCHEM_MONOISOTOPIC_WEIGHT>
270.161979940

> <PUBCHEM_TOTAL_CHARGE>
0

> <PUBCHEM_HEAVY_ATOM_COUNT>
20

> <PUBCHEM_ATOM_DEF_STEREO_COUNT>
0

> <PUBCHEM_ATOM_UDEF_STEREO_COUNT>
0

> <PUBCHEM_BOND_DEF_STEREO_COUNT>
0

> <PUBCHEM_BOND_UDEF_STEREO_COUNT>
0

> <PUBCHEM_ISOTOPIC_ATOM_COUNT>
0

> <PUBCHEM_COMPONENT_COUNT>
1

> <PUBCHEM_CACTVS_TAUTO_COUNT>
-1

> <PUBCHEM_COORDINATE_TYPE>
1
5
255

> <PUBCHEM_BONDANNOTATIONS>
11  15  8
12  16  8
13  17  8
14  18  8
15  19  8
16  20  8
17  19  8
18  20  8
5  11  8
5  13  8
6  12  8
6  14  8

$$$$
