66970
  -OEChem-05122609332D

 17 16  0     0  0  0  0  0  0999 V2000
    3.7321   -0.5600    0.0000 O   0  0  0  0  0  0  0  0  0  0  0  0
    6.3301   -0.0600    0.0000 N   0  0  0  0  0  0  0  0  0  0  0  0
    4.5981   -0.0600    0.0000 C   0  0  0  0  0  0  0  0  0  0  0  0
    5.4641   -0.5600    0.0000 C   0  0  0  0  0  0  0  0  0  0  0  0
    2.8660   -0.0600    0.0000 C   0  0  0  0  0  0  0  0  0  0  0  0
    2.0000   -0.5600    0.0000 C   0  0  0  0  0  0  0  0  0  0  0  0
    4.9966    0.4149    0.0000 H   0  0  0  0  0  0  0  0  0  0  0  0
    4.1996    0.4149    0.0000 H   0  0  0  0  0  0  0  0  0  0  0  0
    5.0656   -1.0350    0.0000 H   0  0  0  0  0  0  0  0  0  0  0  0
    5.8626   -1.0350    0.0000 H   0  0  0  0  0  0  0  0  0  0  0  0
    3.2646    0.4149    0.0000 H   0  0  0  0  0  0  0  0  0  0  0  0
    2.4675    0.4149    0.0000 H   0  0  0  0  0  0  0  0  0  0  0  0
    1.6900   -0.0231    0.0000 H   0  0  0  0  0  0  0  0  0  0  0  0
    1.4631   -0.8700    0.0000 H   0  0  0  0  0  0  0  0  0  0  0  0
    2.3100   -1.0969    0.0000 H   0  0  0  0  0  0  0  0  0  0  0  0
    6.8671   -0.3700    0.0000 H   0  0  0  0  0  0  0  0  0  0  0  0
    6.3301    0.5600    0.0000 H   0  0  0  0  0  0  0  0  0  0  0  0
  1  3  1  0  0  0  0
  1  5  1  0  0  0  0
  2  4  1  0  0  0  0
  2 16  1  0  0  0  0
  2 17  1  0  0  0  0
  3  4  1  0  0  0  0
  3  7  1  0  0  0  0
  3  8  1  0  0  0  0
  4  9  1  0  0  0  0
  4 10  1  0  0  0  0
  5  6  1  0  0  0  0
  5 11  1  0  0  0  0
  5 12  1  0  0  0  0
  6 13  1  0  0  0  0
  6 14  1  0  0  0  0
  6 15  1  0  0  0  0
M  END
> <PUBCHEM_COMPOUND_CID>
66970

> <PUBCHEM_COMPOUND_CANONICALIZED>
1

> <PUBCHEM_CACTVS_COMPLEXITY>
23.5

> <PUBCHEM_CACTVS_HBOND_ACCEPTOR>
2

> <PUBCHEM_CACTVS_HBOND_DONOR>
1

> <PUBCHEM_CACTVS_ROTATABLE_BOND>
3

> <PUBCHEM_CACTVS_SUBSKEYS>
AAADccBiIAAAAAAAAAAAAAAAAAAAAAAAAAAAAAAAAAAAAAAAAAAAHgAQAAAAAADhgAYCAABABAAAAAAAAAAAAAAAAAAAAIAAAAACAAAAAAADAAAAEAAAAAAAAAAAAAAAAAAAAAAAAAAAAAAAAAAAAAAAAA==

> <PUBCHEM_IUPAC_OPENEYE_NAME>
2-ethoxyethanamine

> <PUBCHEM_IUPAC_CAS_NAME>
2-ethoxyethanamine

> <PUBCHEM_IUPAC_NAME_MARKUP>
2-ethoxyethanamine

> <PUBCHEM_IUPAC_NAME>
2-ethoxyethanamine

> <PUBCHEM_IUPAC_SYSTEMATIC_NAME>
2-ethoxyethanamine

> <PUBCHEM_IUPAC_TRADITIONAL_NAME>
2-ethoxyethylamine

> <PUBCHEM_IUPAC_INCHI>
InChI=1S/C4H11NO/c1-2-6-4-3-5/h2-5H2,1H3

> <PUBCHEM_IUPAC_INCHIKEY>
BPGIOCZAQDIBPI-UHFFFAOYSA-N

> <PUBCHEM_XLOGP3_AA>
-0.5

> <PUBCHEM_EXACT_MASS>
89.084063974

> <PUBCHEM_MOLECULAR_FORMULA>
C4H11NO

> <PUBCHEM_MOLECULAR_WEIGHT>
89.14

> <PUBCHEM_SMILES>
CCOCCN

> <PUBCHEM_CONNECTIVITY_SMILES>
CCOCCN

> <PUBCHEM_CACTVS_TPSA>
35.3

> <PUBCHEM_MONOISOTOPIC_WEIGHT>
89.084063974

> <PUBCHEM_TOTAL_CHARGE>
0

> <PUBCHEM_HEAVY_ATOM_COUNT>
6

> <PUBCHEM_ATOM_DEF_STEREO_COUNT>
0

> <PUBCHEM_ATOM_UDEF_STEREO_COUNT>
0

> <PUBCHEM_BOND_DEF_STEREO_COUNT>
0

> <PUBCHEM_BOND_UDEF_STEREO_COUNT>
0

> <PUBCHEM_ISOTOPIC_ATOM_COUNT>
0

> <PUBCHEM_COMPONENT_COUNT>
1

> <PUBCHEM_CACTVS_TAUTO_COUNT>
-1

> <PUBCHEM_COORDINATE_TYPE>
1
5
255

$$$$
