66997
  -OEChem-05122608492D

 62 64  0     0  0  0  0  0  0999 V2000
    3.8660    0.0000    0.0000 P   0  0  0  0  0  0  0  0  0  0  0  0
    3.0000   -0.5000    0.0000 O   0  0  0  0  0  0  0  0  0  0  0  0
    4.7321    0.5000    0.0000 O   0  0  0  0  0  0  0  0  0  0  0  0
    4.3660   -0.8660    0.0000 O   0  0  0  0  0  0  0  0  0  0  0  0
    3.3660    0.8660    0.0000 O   0  0  0  0  0  0  0  0  0  0  0  0
    3.0000   -4.5000    0.0000 C   0  0  0  0  0  0  0  0  0  0  0  0
    4.7321    4.5000    0.0000 C   0  0  0  0  0  0  0  0  0  0  0  0
    3.0000   -3.5000    0.0000 C   0  0  0  0  0  0  0  0  0  0  0  0
    4.7321    3.5000    0.0000 C   0  0  0  0  0  0  0  0  0  0  0  0
    3.0000   -5.5000    0.0000 C   0  0  0  0  0  0  0  0  0  0  0  0
    2.0000   -4.5000    0.0000 C   0  0  0  0  0  0  0  0  0  0  0  0
    4.0000   -4.5000    0.0000 C   0  0  0  0  0  0  0  0  0  0  0  0
    4.7321    5.5000    0.0000 C   0  0  0  0  0  0  0  0  0  0  0  0
    5.7321    4.5000    0.0000 C   0  0  0  0  0  0  0  0  0  0  0  0
    3.7321    4.5000    0.0000 C   0  0  0  0  0  0  0  0  0  0  0  0
    2.1340   -3.0000    0.0000 C   0  0  0  0  0  0  0  0  0  0  0  0
    3.8660    3.0000    0.0000 C   0  0  0  0  0  0  0  0  0  0  0  0
    3.8660   -3.0000    0.0000 C   0  0  0  0  0  0  0  0  0  0  0  0
    5.5981    3.0000    0.0000 C   0  0  0  0  0  0  0  0  0  0  0  0
    2.1340   -2.0000    0.0000 C   0  0  0  0  0  0  0  0  0  0  0  0
    3.8660    2.0000    0.0000 C   0  0  0  0  0  0  0  0  0  0  0  0
    3.8660   -2.0000    0.0000 C   0  0  0  0  0  0  0  0  0  0  0  0
    5.5981    2.0000    0.0000 C   0  0  0  0  0  0  0  0  0  0  0  0
    3.0000   -1.5000    0.0000 C   0  0  0  0  0  0  0  0  0  0  0  0
    4.7321    1.5000    0.0000 C   0  0  0  0  0  0  0  0  0  0  0  0
    5.3660   -0.8660    0.0000 C   0  0  0  0  0  0  0  0  0  0  0  0
    5.8660   -1.7321    0.0000 C   0  0  0  0  0  0  0  0  0  0  0  0
    5.8660   -0.0000    0.0000 C   0  0  0  0  0  0  0  0  0  0  0  0
    6.8660   -1.7321    0.0000 C   0  0  0  0  0  0  0  0  0  0  0  0
    6.8660   -0.0000    0.0000 C   0  0  0  0  0  0  0  0  0  0  0  0
    7.3660   -0.8660    0.0000 C   0  0  0  0  0  0  0  0  0  0  0  0
    2.3800   -5.5000    0.0000 H   0  0  0  0  0  0  0  0  0  0  0  0
    3.0000   -6.1200    0.0000 H   0  0  0  0  0  0  0  0  0  0  0  0
    3.6200   -5.5000    0.0000 H   0  0  0  0  0  0  0  0  0  0  0  0
    2.0000   -3.8800    0.0000 H   0  0  0  0  0  0  0  0  0  0  0  0
    1.3800   -4.5000    0.0000 H   0  0  0  0  0  0  0  0  0  0  0  0
    2.0000   -5.1200    0.0000 H   0  0  0  0  0  0  0  0  0  0  0  0
    4.0000   -5.1200    0.0000 H   0  0  0  0  0  0  0  0  0  0  0  0
    4.6200   -4.5000    0.0000 H   0  0  0  0  0  0  0  0  0  0  0  0
    4.0000   -3.8800    0.0000 H   0  0  0  0  0  0  0  0  0  0  0  0
    5.3521    5.5000    0.0000 H   0  0  0  0  0  0  0  0  0  0  0  0
    4.7321    6.1200    0.0000 H   0  0  0  0  0  0  0  0  0  0  0  0
    4.1121    5.5000    0.0000 H   0  0  0  0  0  0  0  0  0  0  0  0
    5.7321    3.8800    0.0000 H   0  0  0  0  0  0  0  0  0  0  0  0
    6.3521    4.5000    0.0000 H   0  0  0  0  0  0  0  0  0  0  0  0
    5.7321    5.1200    0.0000 H   0  0  0  0  0  0  0  0  0  0  0  0
    3.7321    5.1200    0.0000 H   0  0  0  0  0  0  0  0  0  0  0  0
    3.1121    4.5000    0.0000 H   0  0  0  0  0  0  0  0  0  0  0  0
    3.7321    3.8800    0.0000 H   0  0  0  0  0  0  0  0  0  0  0  0
    1.5970   -3.3100    0.0000 H   0  0  0  0  0  0  0  0  0  0  0  0
    3.3291    3.3100    0.0000 H   0  0  0  0  0  0  0  0  0  0  0  0
    4.4030   -3.3100    0.0000 H   0  0  0  0  0  0  0  0  0  0  0  0
    6.1350    3.3100    0.0000 H   0  0  0  0  0  0  0  0  0  0  0  0
    1.5970   -1.6900    0.0000 H   0  0  0  0  0  0  0  0  0  0  0  0
    3.3291    1.6900    0.0000 H   0  0  0  0  0  0  0  0  0  0  0  0
    4.4030   -1.6900    0.0000 H   0  0  0  0  0  0  0  0  0  0  0  0
    6.1350    1.6900    0.0000 H   0  0  0  0  0  0  0  0  0  0  0  0
    5.5560   -2.2690    0.0000 H   0  0  0  0  0  0  0  0  0  0  0  0
    5.5560    0.5369    0.0000 H   0  0  0  0  0  0  0  0  0  0  0  0
    7.1760   -2.2690    0.0000 H   0  0  0  0  0  0  0  0  0  0  0  0
    7.1760    0.5369    0.0000 H   0  0  0  0  0  0  0  0  0  0  0  0
    7.9860   -0.8660    0.0000 H   0  0  0  0  0  0  0  0  0  0  0  0
  1  2  1  0  0  0  0
  1  3  1  0  0  0  0
  1  4  1  0  0  0  0
  1  5  2  0  0  0  0
  2 24  1  0  0  0  0
  3 25  1  0  0  0  0
  4 26  1  0  0  0  0
  6  8  1  0  0  0  0
  6 10  1  0  0  0  0
  6 11  1  0  0  0  0
  6 12  1  0  0  0  0
  7  9  1  0  0  0  0
  7 13  1  0  0  0  0
  7 14  1  0  0  0  0
  7 15  1  0  0  0  0
  8 16  2  0  0  0  0
  8 18  1  0  0  0  0
  9 17  2  0  0  0  0
  9 19  1  0  0  0  0
 10 32  1  0  0  0  0
 10 33  1  0  0  0  0
 10 34  1  0  0  0  0
 11 35  1  0  0  0  0
 11 36  1  0  0  0  0
 11 37  1  0  0  0  0
 12 38  1  0  0  0  0
 12 39  1  0  0  0  0
 12 40  1  0  0  0  0
 13 41  1  0  0  0  0
 13 42  1  0  0  0  0
 13 43  1  0  0  0  0
 14 44  1  0  0  0  0
 14 45  1  0  0  0  0
 14 46  1  0  0  0  0
 15 47  1  0  0  0  0
 15 48  1  0  0  0  0
 15 49  1  0  0  0  0
 16 20  1  0  0  0  0
 16 50  1  0  0  0  0
 17 21  1  0  0  0  0
 17 51  1  0  0  0  0
 18 22  2  0  0  0  0
 18 52  1  0  0  0  0
 19 23  2  0  0  0  0
 19 53  1  0  0  0  0
 20 24  2  0  0  0  0
 20 54  1  0  0  0  0
 21 25  2  0  0  0  0
 21 55  1  0  0  0  0
 22 24  1  0  0  0  0
 22 56  1  0  0  0  0
 23 25  1  0  0  0  0
 23 57  1  0  0  0  0
 26 27  2  0  0  0  0
 26 28  1  0  0  0  0
 27 29  1  0  0  0  0
 27 58  1  0  0  0  0
 28 30  2  0  0  0  0
 28 59  1  0  0  0  0
 29 31  2  0  0  0  0
 29 60  1  0  0  0  0
 30 31  1  0  0  0  0
 30 61  1  0  0  0  0
 31 62  1  0  0  0  0
M  END
> <PUBCHEM_COMPOUND_CID>
66997

> <PUBCHEM_COMPOUND_CANONICALIZED>
1

> <PUBCHEM_CACTVS_COMPLEXITY>
544

> <PUBCHEM_CACTVS_HBOND_ACCEPTOR>
4

> <PUBCHEM_CACTVS_HBOND_DONOR>
0

> <PUBCHEM_CACTVS_ROTATABLE_BOND>
8

> <PUBCHEM_CACTVS_SUBSKEYS>
AAADceB4OAIAAAAAAAAAAAAAAAAAAAAAAAAwYMAAAAAAAAABUAAAGgAAACAADgSAmAAyBoAAARCAQiBCAIACAAAgIAAIiAAGCIgIJiKAERKAMAAkwBEIiAeAwNAPoAAAAAAAAABAAAAAAAAAAAAAAAAAAA==

> <PUBCHEM_IUPAC_OPENEYE_NAME>
bis(4-tert-butylphenyl) phenyl phosphate

> <PUBCHEM_IUPAC_CAS_NAME>
phosphoric acid bis(4-tert-butylphenyl) phenyl ester

> <PUBCHEM_IUPAC_NAME_MARKUP>
bis(4-<I>tert</I>-butylphenyl) phenyl phosphate

> <PUBCHEM_IUPAC_NAME>
bis(4-tert-butylphenyl) phenyl phosphate

> <PUBCHEM_IUPAC_SYSTEMATIC_NAME>
bis(4-tert-butylphenyl) phenyl phosphate

> <PUBCHEM_IUPAC_TRADITIONAL_NAME>
phosphoric acid bis(4-tert-butylphenyl) phenyl ester

> <PUBCHEM_IUPAC_INCHI>
InChI=1S/C26H31O4P/c1-25(2,3)20-12-16-23(17-13-20)29-31(27,28-22-10-8-7-9-11-22)30-24-18-14-21(15-19-24)26(4,5)6/h7-19H,1-6H3

> <PUBCHEM_IUPAC_INCHIKEY>
PDLPMCXGPIVYQQ-UHFFFAOYSA-N

> <PUBCHEM_XLOGP3>
7.9

> <PUBCHEM_EXACT_MASS>
438.19599646

> <PUBCHEM_MOLECULAR_FORMULA>
C26H31O4P

> <PUBCHEM_MOLECULAR_WEIGHT>
438.5

> <PUBCHEM_SMILES>
CC(C)(C)C1=CC=C(C=C1)OP(=O)(OC2=CC=CC=C2)OC3=CC=C(C=C3)C(C)(C)C

> <PUBCHEM_CONNECTIVITY_SMILES>
CC(C)(C)C1=CC=C(C=C1)OP(=O)(OC2=CC=CC=C2)OC3=CC=C(C=C3)C(C)(C)C

> <PUBCHEM_CACTVS_TPSA>
44.8

> <PUBCHEM_MONOISOTOPIC_WEIGHT>
438.19599646

> <PUBCHEM_TOTAL_CHARGE>
0

> <PUBCHEM_HEAVY_ATOM_COUNT>
31

> <PUBCHEM_ATOM_DEF_STEREO_COUNT>
0

> <PUBCHEM_ATOM_UDEF_STEREO_COUNT>
0

> <PUBCHEM_BOND_DEF_STEREO_COUNT>
0

> <PUBCHEM_BOND_UDEF_STEREO_COUNT>
0

> <PUBCHEM_ISOTOPIC_ATOM_COUNT>
0

> <PUBCHEM_COMPONENT_COUNT>
1

> <PUBCHEM_CACTVS_TAUTO_COUNT>
-1

> <PUBCHEM_COORDINATE_TYPE>
1
5
255

> <PUBCHEM_BONDANNOTATIONS>
16  20  8
17  21  8
18  22  8
19  23  8
20  24  8
21  25  8
22  24  8
23  25  8
26  27  8
26  28  8
27  29  8
28  30  8
29  31  8
30  31  8
8  16  8
8  18  8
9  17  8
9  19  8

$$$$
