67234
  -OEChem-05122609372D

 48 51  0     0  0  0  0  0  0999 V2000
    5.5000    0.6340    0.0000 P   0  0  0  0  0  0  0  0  0  0  0  0
    6.0000   -0.2321    0.0000 O   0  0  0  0  0  0  0  0  0  0  0  0
    5.0000    1.5000    0.0000 O   0  0  0  0  0  0  0  0  0  0  0  0
    4.6340    0.1340    0.0000 O   0  0  0  0  0  0  0  0  0  0  0  0
    6.3660    1.1340    0.0000 O   0  0  0  0  0  0  0  0  0  0  0  0
    7.8660    0.2679    0.0000 C   0  0  0  0  0  0  0  0  0  0  0  0
    7.0000   -0.2321    0.0000 C   0  0  0  0  0  0  0  0  0  0  0  0
    8.3660    1.1340    0.0000 C   0  0  0  0  0  0  0  0  0  0  0  0
    8.7321   -0.2321    0.0000 C   0  0  0  0  0  0  0  0  0  0  0  0
    7.0000   -1.2321    0.0000 C   0  0  0  0  0  0  0  0  0  0  0  0
    7.8660    2.0000    0.0000 C   0  0  0  0  0  0  0  0  0  0  0  0
    9.3660    1.1340    0.0000 C   0  0  0  0  0  0  0  0  0  0  0  0
    8.7321   -1.2321    0.0000 C   0  0  0  0  0  0  0  0  0  0  0  0
    7.8660   -1.7321    0.0000 C   0  0  0  0  0  0  0  0  0  0  0  0
    8.3660    2.8660    0.0000 C   0  0  0  0  0  0  0  0  0  0  0  0
    9.8660    2.0000    0.0000 C   0  0  0  0  0  0  0  0  0  0  0  0
    4.0000    1.5000    0.0000 C   0  0  0  0  0  0  0  0  0  0  0  0
    4.6340   -0.8660    0.0000 C   0  0  0  0  0  0  0  0  0  0  0  0
    9.3660    2.8660    0.0000 C   0  0  0  0  0  0  0  0  0  0  0  0
    3.5000    2.3660    0.0000 C   0  0  0  0  0  0  0  0  0  0  0  0
    3.7680   -1.3661    0.0000 C   0  0  0  0  0  0  0  0  0  0  0  0
    3.5000    0.6340    0.0000 C   0  0  0  0  0  0  0  0  0  0  0  0
    5.5000   -1.3660    0.0000 C   0  0  0  0  0  0  0  0  0  0  0  0
    2.5000    2.3660    0.0000 C   0  0  0  0  0  0  0  0  0  0  0  0
    3.7679   -2.3660    0.0000 C   0  0  0  0  0  0  0  0  0  0  0  0
    2.5000    0.6340    0.0000 C   0  0  0  0  0  0  0  0  0  0  0  0
    5.5000   -2.3660    0.0000 C   0  0  0  0  0  0  0  0  0  0  0  0
    2.0000    1.5000    0.0000 C   0  0  0  0  0  0  0  0  0  0  0  0
    4.6339   -2.8660    0.0000 C   0  0  0  0  0  0  0  0  0  0  0  0
    9.2690    0.0779    0.0000 H   0  0  0  0  0  0  0  0  0  0  0  0
    6.4631   -1.5421    0.0000 H   0  0  0  0  0  0  0  0  0  0  0  0
    7.2460    2.0000    0.0000 H   0  0  0  0  0  0  0  0  0  0  0  0
    9.6760    0.5970    0.0000 H   0  0  0  0  0  0  0  0  0  0  0  0
    9.2690   -1.5421    0.0000 H   0  0  0  0  0  0  0  0  0  0  0  0
    7.8660   -2.3521    0.0000 H   0  0  0  0  0  0  0  0  0  0  0  0
    8.0560    3.4029    0.0000 H   0  0  0  0  0  0  0  0  0  0  0  0
   10.4860    2.0000    0.0000 H   0  0  0  0  0  0  0  0  0  0  0  0
    9.6760    3.4029    0.0000 H   0  0  0  0  0  0  0  0  0  0  0  0
    3.8100    2.9029    0.0000 H   0  0  0  0  0  0  0  0  0  0  0  0
    3.2310   -1.0560    0.0000 H   0  0  0  0  0  0  0  0  0  0  0  0
    3.8100    0.0970    0.0000 H   0  0  0  0  0  0  0  0  0  0  0  0
    6.0369   -1.0560    0.0000 H   0  0  0  0  0  0  0  0  0  0  0  0
    2.1900    2.9029    0.0000 H   0  0  0  0  0  0  0  0  0  0  0  0
    3.2310   -2.6760    0.0000 H   0  0  0  0  0  0  0  0  0  0  0  0
    2.1900    0.0970    0.0000 H   0  0  0  0  0  0  0  0  0  0  0  0
    6.0369   -2.6760    0.0000 H   0  0  0  0  0  0  0  0  0  0  0  0
    1.3800    1.5000    0.0000 H   0  0  0  0  0  0  0  0  0  0  0  0
    4.6339   -3.4860    0.0000 H   0  0  0  0  0  0  0  0  0  0  0  0
  1  2  1  0  0  0  0
  1  3  1  0  0  0  0
  1  4  1  0  0  0  0
  1  5  2  0  0  0  0
  2  7  1  0  0  0  0
  3 17  1  0  0  0  0
  4 18  1  0  0  0  0
  6  7  1  0  0  0  0
  6  8  1  0  0  0  0
  6  9  2  0  0  0  0
  7 10  2  0  0  0  0
  8 11  2  0  0  0  0
  8 12  1  0  0  0  0
  9 13  1  0  0  0  0
  9 30  1  0  0  0  0
 10 14  1  0  0  0  0
 10 31  1  0  0  0  0
 11 15  1  0  0  0  0
 11 32  1  0  0  0  0
 12 16  2  0  0  0  0
 12 33  1  0  0  0  0
 13 14  2  0  0  0  0
 13 34  1  0  0  0  0
 14 35  1  0  0  0  0
 15 19  2  0  0  0  0
 15 36  1  0  0  0  0
 16 19  1  0  0  0  0
 16 37  1  0  0  0  0
 17 20  2  0  0  0  0
 17 22  1  0  0  0  0
 18 21  2  0  0  0  0
 18 23  1  0  0  0  0
 19 38  1  0  0  0  0
 20 24  1  0  0  0  0
 20 39  1  0  0  0  0
 21 25  1  0  0  0  0
 21 40  1  0  0  0  0
 22 26  2  0  0  0  0
 22 41  1  0  0  0  0
 23 27  2  0  0  0  0
 23 42  1  0  0  0  0
 24 28  2  0  0  0  0
 24 43  1  0  0  0  0
 25 29  2  0  0  0  0
 25 44  1  0  0  0  0
 26 28  1  0  0  0  0
 26 45  1  0  0  0  0
 27 29  1  0  0  0  0
 27 46  1  0  0  0  0
 28 47  1  0  0  0  0
 29 48  1  0  0  0  0
M  END
> <PUBCHEM_COMPOUND_CID>
67234

> <PUBCHEM_COMPOUND_CANONICALIZED>
1

> <PUBCHEM_CACTVS_COMPLEXITY>
497

> <PUBCHEM_CACTVS_HBOND_ACCEPTOR>
4

> <PUBCHEM_CACTVS_HBOND_DONOR>
0

> <PUBCHEM_CACTVS_ROTATABLE_BOND>
7

> <PUBCHEM_CACTVS_SUBSKEYS>
AAADceB4OAIAAAAAAAAAAAAAAAAAAAAAAAAwYMGAAAAAAAABVAAAGgAAACAADASAmAAwBoAAARCAQiBCAIACAAAgIAAIiAAGCIgIJiKAERKAMAAkwBEIiAeAwOAOgAAAAAAIAAAAAAAAABAAAAAAAAAAAA==

> <PUBCHEM_IUPAC_OPENEYE_NAME>
diphenyl (2-phenylphenyl) phosphate

> <PUBCHEM_IUPAC_CAS_NAME>
phosphoric acid diphenyl (2-phenylphenyl) ester

> <PUBCHEM_IUPAC_NAME_MARKUP>
diphenyl (2-phenylphenyl) phosphate

> <PUBCHEM_IUPAC_NAME>
diphenyl (2-phenylphenyl) phosphate

> <PUBCHEM_IUPAC_SYSTEMATIC_NAME>
diphenyl (2-phenylphenyl) phosphate

> <PUBCHEM_IUPAC_TRADITIONAL_NAME>
phosphoric acid diphenyl (2-phenylphenyl) ester

> <PUBCHEM_IUPAC_INCHI>
InChI=1S/C24H19O4P/c25-29(26-21-14-6-2-7-15-21,27-22-16-8-3-9-17-22)28-24-19-11-10-18-23(24)20-12-4-1-5-13-20/h1-19H

> <PUBCHEM_IUPAC_INCHIKEY>
QARIOUOTENZTDH-UHFFFAOYSA-N

> <PUBCHEM_XLOGP3_AA>
6.6

> <PUBCHEM_EXACT_MASS>
402.10209608

> <PUBCHEM_MOLECULAR_FORMULA>
C24H19O4P

> <PUBCHEM_MOLECULAR_WEIGHT>
402.4

> <PUBCHEM_SMILES>
C1=CC=C(C=C1)C2=CC=CC=C2OP(=O)(OC3=CC=CC=C3)OC4=CC=CC=C4

> <PUBCHEM_CONNECTIVITY_SMILES>
C1=CC=C(C=C1)C2=CC=CC=C2OP(=O)(OC3=CC=CC=C3)OC4=CC=CC=C4

> <PUBCHEM_CACTVS_TPSA>
44.8

> <PUBCHEM_MONOISOTOPIC_WEIGHT>
402.10209608

> <PUBCHEM_TOTAL_CHARGE>
0

> <PUBCHEM_HEAVY_ATOM_COUNT>
29

> <PUBCHEM_ATOM_DEF_STEREO_COUNT>
0

> <PUBCHEM_ATOM_UDEF_STEREO_COUNT>
0

> <PUBCHEM_BOND_DEF_STEREO_COUNT>
0

> <PUBCHEM_BOND_UDEF_STEREO_COUNT>
0

> <PUBCHEM_ISOTOPIC_ATOM_COUNT>
0

> <PUBCHEM_COMPONENT_COUNT>
1

> <PUBCHEM_CACTVS_TAUTO_COUNT>
-1

> <PUBCHEM_COORDINATE_TYPE>
1
5
255

> <PUBCHEM_BONDANNOTATIONS>
10  14  8
11  15  8
12  16  8
13  14  8
15  19  8
16  19  8
17  20  8
17  22  8
18  21  8
18  23  8
20  24  8
21  25  8
22  26  8
23  27  8
24  28  8
25  29  8
26  28  8
27  29  8
6  7  8
6  9  8
7  10  8
8  11  8
8  12  8
9  13  8

$$$$
