67542
  -OEChem-05122608192D

 20 19  0     0  0  0  0  0  0999 V2000
    4.0981    0.5490    0.0000 F   0  0  0  0  0  0  0  0  0  0  0  0
    5.0981   -1.1830    0.0000 F   0  0  0  0  0  0  0  0  0  0  0  0
    4.9641    1.0490    0.0000 F   0  0  0  0  0  0  0  0  0  0  0  0
    5.9641   -0.6830    0.0000 F   0  0  0  0  0  0  0  0  0  0  0  0
    3.2321    0.0490    0.0000 F   0  0  0  0  0  0  0  0  0  0  0  0
    4.2321   -1.6830    0.0000 F   0  0  0  0  0  0  0  0  0  0  0  0
    6.8301   -0.1830    0.0000 F   0  0  0  0  0  0  0  0  0  0  0  0
    5.8301    1.5490    0.0000 F   0  0  0  0  0  0  0  0  0  0  0  0
    2.0000   -1.8170    0.0000 F   0  0  0  0  0  0  0  0  0  0  0  0
    2.3660   -0.4510    0.0000 F   0  0  0  0  0  0  0  0  0  0  0  0
    3.3660   -2.1830    0.0000 F   0  0  0  0  0  0  0  0  0  0  0  0
    8.0622    0.6830    0.0000 O   0  0  0  0  0  0  0  0  0  0  0  0
    7.1962    2.1830    0.0000 O   0  0  0  0  0  0  0  0  0  0  0  0
    4.5981   -0.3170    0.0000 C   0  0  0  0  0  0  0  0  0  0  0  0
    5.4641    0.1830    0.0000 C   0  0  0  0  0  0  0  0  0  0  0  0
    3.7321   -0.8170    0.0000 C   0  0  0  0  0  0  0  0  0  0  0  0
    6.3301    0.6830    0.0000 C   0  0  0  0  0  0  0  0  0  0  0  0
    2.8660   -1.3170    0.0000 C   0  0  0  0  0  0  0  0  0  0  0  0
    7.1962    1.1830    0.0000 C   0  0  0  0  0  0  0  0  0  0  0  0
    8.5991    0.9930    0.0000 H   0  0  0  0  0  0  0  0  0  0  0  0
  1 14  1  0  0  0  0
  2 14  1  0  0  0  0
  3 15  1  0  0  0  0
  4 15  1  0  0  0  0
  5 16  1  0  0  0  0
  6 16  1  0  0  0  0
  7 17  1  0  0  0  0
  8 17  1  0  0  0  0
  9 18  1  0  0  0  0
 10 18  1  0  0  0  0
 11 18  1  0  0  0  0
 12 19  1  0  0  0  0
 12 20  1  0  0  0  0
 13 19  2  0  0  0  0
 14 15  1  0  0  0  0
 14 16  1  0  0  0  0
 15 17  1  0  0  0  0
 16 18  1  0  0  0  0
 17 19  1  0  0  0  0
M  END
> <PUBCHEM_COMPOUND_CID>
67542

> <PUBCHEM_COMPOUND_CANONICALIZED>
1

> <PUBCHEM_CACTVS_COMPLEXITY>
368

> <PUBCHEM_CACTVS_HBOND_ACCEPTOR>
13

> <PUBCHEM_CACTVS_HBOND_DONOR>
1

> <PUBCHEM_CACTVS_ROTATABLE_BOND>
4

> <PUBCHEM_CACTVS_SUBSKEYS>
AAADcQBgMcAAAAAAAAAAAAAAAAAAAAAAAAAAAAAAAAAAAAAAAAAACwAACAAACAAAgBAACAAAAgAIAACQCAAAAAAAAAAAAAEAAAAAABIAAAAAQAAEAAAAAAGISAAAAAAAAAAAAAAAAAAAAAAAAAAAAAAAAA==

> <PUBCHEM_IUPAC_OPENEYE_NAME>
2,2,3,3,4,4,5,5,6,6,6-undecafluorohexanoic acid

> <PUBCHEM_IUPAC_CAS_NAME>
2,2,3,3,4,4,5,5,6,6,6-undecafluorohexanoic acid

> <PUBCHEM_IUPAC_NAME_MARKUP>
2,2,3,3,4,4,5,5,6,6,6-undecafluorohexanoic acid

> <PUBCHEM_IUPAC_NAME>
2,2,3,3,4,4,5,5,6,6,6-undecafluorohexanoic acid

> <PUBCHEM_IUPAC_SYSTEMATIC_NAME>
2,2,3,3,4,4,5,5,6,6,6-undecakis(fluoranyl)hexanoic acid

> <PUBCHEM_IUPAC_TRADITIONAL_NAME>
2,2,3,3,4,4,5,5,6,6,6-undecafluorohexanoic acid

> <PUBCHEM_IUPAC_INCHI>
InChI=1S/C6HF11O2/c7-2(8,1(18)19)3(9,10)4(11,12)5(13,14)6(15,16)17/h(H,18,19)

> <PUBCHEM_IUPAC_INCHIKEY>
PXUULQAPEKKVAH-UHFFFAOYSA-N

> <PUBCHEM_XLOGP3_AA>
3.6

> <PUBCHEM_EXACT_MASS>
313.98008905

> <PUBCHEM_MOLECULAR_FORMULA>
C6HF11O2

> <PUBCHEM_MOLECULAR_WEIGHT>
314.05

> <PUBCHEM_SMILES>
C(=O)(C(C(C(C(C(F)(F)F)(F)F)(F)F)(F)F)(F)F)O

> <PUBCHEM_CONNECTIVITY_SMILES>
C(=O)(C(C(C(C(C(F)(F)F)(F)F)(F)F)(F)F)(F)F)O

> <PUBCHEM_CACTVS_TPSA>
37.3

> <PUBCHEM_MONOISOTOPIC_WEIGHT>
313.98008905

> <PUBCHEM_TOTAL_CHARGE>
0

> <PUBCHEM_HEAVY_ATOM_COUNT>
19

> <PUBCHEM_ATOM_DEF_STEREO_COUNT>
0

> <PUBCHEM_ATOM_UDEF_STEREO_COUNT>
0

> <PUBCHEM_BOND_DEF_STEREO_COUNT>
0

> <PUBCHEM_BOND_UDEF_STEREO_COUNT>
0

> <PUBCHEM_ISOTOPIC_ATOM_COUNT>
0

> <PUBCHEM_COMPONENT_COUNT>
1

> <PUBCHEM_CACTVS_TAUTO_COUNT>
-1

> <PUBCHEM_COORDINATE_TYPE>
1
5
255

$$$$
