67636
  -OEChem-05122608202D

 36 35  0     0  0  0  0  0  0999 V2000
   11.5263    2.5000    0.0000 S   0  0  0  0  0  0  0  0  0  0  0  0
    6.6962    0.8660    0.0000 F   0  0  0  0  0  0  0  0  0  0  0  0
    7.6962   -0.8660    0.0000 F   0  0  0  0  0  0  0  0  0  0  0  0
    7.5622    1.3660    0.0000 F   0  0  0  0  0  0  0  0  0  0  0  0
    8.5622   -0.3660    0.0000 F   0  0  0  0  0  0  0  0  0  0  0  0
    5.8301    0.3660    0.0000 F   0  0  0  0  0  0  0  0  0  0  0  0
    6.8301   -1.3660    0.0000 F   0  0  0  0  0  0  0  0  0  0  0  0
    9.4282    0.1340    0.0000 F   0  0  0  0  0  0  0  0  0  0  0  0
    8.4282    1.8660    0.0000 F   0  0  0  0  0  0  0  0  0  0  0  0
    4.9641   -0.1340    0.0000 F   0  0  0  0  0  0  0  0  0  0  0  0
    5.9641   -1.8660    0.0000 F   0  0  0  0  0  0  0  0  0  0  0  0
   10.2942    0.6340    0.0000 F   0  0  0  0  0  0  0  0  0  0  0  0
    9.2942    2.3660    0.0000 F   0  0  0  0  0  0  0  0  0  0  0  0
    4.0981   -0.6340    0.0000 F   0  0  0  0  0  0  0  0  0  0  0  0
    5.0981   -2.3660    0.0000 F   0  0  0  0  0  0  0  0  0  0  0  0
   11.1603    1.1340    0.0000 F   0  0  0  0  0  0  0  0  0  0  0  0
   10.1603    2.8660    0.0000 F   0  0  0  0  0  0  0  0  0  0  0  0
    3.2321   -1.1340    0.0000 F   0  0  0  0  0  0  0  0  0  0  0  0
    4.2321   -2.8660    0.0000 F   0  0  0  0  0  0  0  0  0  0  0  0
    2.0000   -3.0000    0.0000 F   0  0  0  0  0  0  0  0  0  0  0  0
    2.3660   -1.6340    0.0000 F   0  0  0  0  0  0  0  0  0  0  0  0
    3.3660   -3.3660    0.0000 F   0  0  0  0  0  0  0  0  0  0  0  0
   12.3923    3.0000    0.0000 O   0  0  0  0  0  0  0  0  0  0  0  0
   12.0263    1.6340    0.0000 O   0  0  0  0  0  0  0  0  0  0  0  0
   11.0263    3.3660    0.0000 O   0  0  0  0  0  0  0  0  0  0  0  0
    7.1962    0.0000    0.0000 C   0  0  0  0  0  0  0  0  0  0  0  0
    8.0622    0.5000    0.0000 C   0  0  0  0  0  0  0  0  0  0  0  0
    6.3301   -0.5000    0.0000 C   0  0  0  0  0  0  0  0  0  0  0  0
    8.9282    1.0000    0.0000 C   0  0  0  0  0  0  0  0  0  0  0  0
    5.4641   -1.0000    0.0000 C   0  0  0  0  0  0  0  0  0  0  0  0
    9.7942    1.5000    0.0000 C   0  0  0  0  0  0  0  0  0  0  0  0
    4.5981   -1.5000    0.0000 C   0  0  0  0  0  0  0  0  0  0  0  0
   10.6603    2.0000    0.0000 C   0  0  0  0  0  0  0  0  0  0  0  0
    3.7321   -2.0000    0.0000 C   0  0  0  0  0  0  0  0  0  0  0  0
    2.8660   -2.5000    0.0000 C   0  0  0  0  0  0  0  0  0  0  0  0
   12.9292    2.6900    0.0000 H   0  0  0  0  0  0  0  0  0  0  0  0
  1 23  1  0  0  0  0
  1 24  2  0  0  0  0
  1 25  2  0  0  0  0
  1 33  1  0  0  0  0
  2 26  1  0  0  0  0
  3 26  1  0  0  0  0
  4 27  1  0  0  0  0
  5 27  1  0  0  0  0
  6 28  1  0  0  0  0
  7 28  1  0  0  0  0
  8 29  1  0  0  0  0
  9 29  1  0  0  0  0
 10 30  1  0  0  0  0
 11 30  1  0  0  0  0
 12 31  1  0  0  0  0
 13 31  1  0  0  0  0
 14 32  1  0  0  0  0
 15 32  1  0  0  0  0
 16 33  1  0  0  0  0
 17 33  1  0  0  0  0
 18 34  1  0  0  0  0
 19 34  1  0  0  0  0
 20 35  1  0  0  0  0
 21 35  1  0  0  0  0
 22 35  1  0  0  0  0
 23 36  1  0  0  0  0
 26 27  1  0  0  0  0
 26 28  1  0  0  0  0
 27 29  1  0  0  0  0
 28 30  1  0  0  0  0
 29 31  1  0  0  0  0
 30 32  1  0  0  0  0
 31 33  1  0  0  0  0
 32 34  1  0  0  0  0
 34 35  1  0  0  0  0
M  END
> <PUBCHEM_COMPOUND_CID>
67636

> <PUBCHEM_COMPOUND_CANONICALIZED>
1

> <PUBCHEM_CACTVS_COMPLEXITY>
907

> <PUBCHEM_CACTVS_HBOND_ACCEPTOR>
24

> <PUBCHEM_CACTVS_HBOND_DONOR>
1

> <PUBCHEM_CACTVS_ROTATABLE_BOND>
9

> <PUBCHEM_CACTVS_SUBSKEYS>
AAADcQBwMcBAAAAAAAAAAAAAAAAAAAAAAAAAAAAAAAAAAAAAAAAACQQACAAACAAAQBAAAAAAAIIAAAAAAHBAAAAAAAAAAAAAAAAAAAIAAAAAAAAAAAAAAAEAgIAAAAAAAAAAAAAAAAAAAAAAAAAAAAAAAA==

> <PUBCHEM_IUPAC_OPENEYE_NAME>
1,1,2,2,3,3,4,4,5,5,6,6,7,7,8,8,9,9,10,10,10-henicosafluorodecane-1-sulfonic acid

> <PUBCHEM_IUPAC_CAS_NAME>
1,1,2,2,3,3,4,4,5,5,6,6,7,7,8,8,9,9,10,10,10-heneicosafluoro-1-decanesulfonic acid

> <PUBCHEM_IUPAC_NAME_MARKUP>
1,1,2,2,3,3,4,4,5,5,6,6,7,7,8,8,9,9,10,10,10-henicosafluorodecane-1-sulfonic acid

> <PUBCHEM_IUPAC_NAME>
1,1,2,2,3,3,4,4,5,5,6,6,7,7,8,8,9,9,10,10,10-henicosafluorodecane-1-sulfonic acid

> <PUBCHEM_IUPAC_SYSTEMATIC_NAME>
1,1,2,2,3,3,4,4,5,5,6,6,7,7,8,8,9,9,10,10,10-henicosakis(fluoranyl)decane-1-sulfonic acid

> <PUBCHEM_IUPAC_TRADITIONAL_NAME>
1,1,2,2,3,3,4,4,5,5,6,6,7,7,8,8,9,9,10,10,10-heneicosafluorodecane-1-sulfonic acid

> <PUBCHEM_IUPAC_INCHI>
InChI=1S/C10HF21O3S/c11-1(12,3(15,16)5(19,20)7(23,24)9(27,28)29)2(13,14)4(17,18)6(21,22)8(25,26)10(30,31)35(32,33)34/h(H,32,33,34)

> <PUBCHEM_IUPAC_INCHIKEY>
HYWZIAVPBSTISZ-UHFFFAOYSA-N

> <PUBCHEM_XLOGP3_AA>
6.4

> <PUBCHEM_EXACT_MASS>
599.9311065

> <PUBCHEM_MOLECULAR_FORMULA>
C10HF21O3S

> <PUBCHEM_MOLECULAR_WEIGHT>
600.15

> <PUBCHEM_SMILES>
C(C(C(C(C(C(F)(F)S(=O)(=O)O)(F)F)(F)F)(F)F)(F)F)(C(C(C(C(F)(F)F)(F)F)(F)F)(F)F)(F)F

> <PUBCHEM_CONNECTIVITY_SMILES>
C(C(C(C(C(C(F)(F)S(=O)(=O)O)(F)F)(F)F)(F)F)(F)F)(C(C(C(C(F)(F)F)(F)F)(F)F)(F)F)(F)F

> <PUBCHEM_CACTVS_TPSA>
62.8

> <PUBCHEM_MONOISOTOPIC_WEIGHT>
599.9311065

> <PUBCHEM_TOTAL_CHARGE>
0

> <PUBCHEM_HEAVY_ATOM_COUNT>
35

> <PUBCHEM_ATOM_DEF_STEREO_COUNT>
0

> <PUBCHEM_ATOM_UDEF_STEREO_COUNT>
0

> <PUBCHEM_BOND_DEF_STEREO_COUNT>
0

> <PUBCHEM_BOND_UDEF_STEREO_COUNT>
0

> <PUBCHEM_ISOTOPIC_ATOM_COUNT>
0

> <PUBCHEM_COMPONENT_COUNT>
1

> <PUBCHEM_CACTVS_TAUTO_COUNT>
-1

> <PUBCHEM_COORDINATE_TYPE>
1
5
255

$$$$
