67818
  -OEChem-05122608192D

 23 22  0     0  0  0  0  0  0999 V2000
    6.5010   -0.7990    0.0000 F   0  0  0  0  0  0  0  0  0  0  0  0
    5.5010    0.9330    0.0000 F   0  0  0  0  0  0  0  0  0  0  0  0
    6.3671    1.4330    0.0000 F   0  0  0  0  0  0  0  0  0  0  0  0
    7.3671   -0.2990    0.0000 F   0  0  0  0  0  0  0  0  0  0  0  0
    4.6350    0.4330    0.0000 F   0  0  0  0  0  0  0  0  0  0  0  0
    5.6350   -1.2990    0.0000 F   0  0  0  0  0  0  0  0  0  0  0  0
    8.2331    0.2010    0.0000 F   0  0  0  0  0  0  0  0  0  0  0  0
    7.2331    1.9330    0.0000 F   0  0  0  0  0  0  0  0  0  0  0  0
    3.7690   -0.0670    0.0000 F   0  0  0  0  0  0  0  0  0  0  0  0
    4.7690   -1.7990    0.0000 F   0  0  0  0  0  0  0  0  0  0  0  0
    9.4651    2.0670    0.0000 F   0  0  0  0  0  0  0  0  0  0  0  0
    9.0991    0.7010    0.0000 F   0  0  0  0  0  0  0  0  0  0  0  0
    8.0991    2.4330    0.0000 F   0  0  0  0  0  0  0  0  0  0  0  0
    2.5369   -0.9330    0.0000 O   0  0  0  0  0  0  0  0  0  0  0  0
    3.4030   -2.4330    0.0000 O   0  0  0  0  0  0  0  0  0  0  0  0
    6.0010    0.0670    0.0000 C   0  0  0  0  0  0  0  0  0  0  0  0
    6.8671    0.5670    0.0000 C   0  0  0  0  0  0  0  0  0  0  0  0
    5.1350   -0.4330    0.0000 C   0  0  0  0  0  0  0  0  0  0  0  0
    7.7331    1.0670    0.0000 C   0  0  0  0  0  0  0  0  0  0  0  0
    4.2690   -0.9330    0.0000 C   0  0  0  0  0  0  0  0  0  0  0  0
    8.5991    1.5670    0.0000 C   0  0  0  0  0  0  0  0  0  0  0  0
    3.4030   -1.4330    0.0000 C   0  0  0  0  0  0  0  0  0  0  0  0
    2.0000   -1.2430    0.0000 H   0  0  0  0  0  0  0  0  0  0  0  0
  1 16  1  0  0  0  0
  2 16  1  0  0  0  0
  3 17  1  0  0  0  0
  4 17  1  0  0  0  0
  5 18  1  0  0  0  0
  6 18  1  0  0  0  0
  7 19  1  0  0  0  0
  8 19  1  0  0  0  0
  9 20  1  0  0  0  0
 10 20  1  0  0  0  0
 11 21  1  0  0  0  0
 12 21  1  0  0  0  0
 13 21  1  0  0  0  0
 14 22  1  0  0  0  0
 14 23  1  0  0  0  0
 15 22  2  0  0  0  0
 16 17  1  0  0  0  0
 16 18  1  0  0  0  0
 17 19  1  0  0  0  0
 18 20  1  0  0  0  0
 19 21  1  0  0  0  0
 20 22  1  0  0  0  0
M  END
> <PUBCHEM_COMPOUND_CID>
67818

> <PUBCHEM_COMPOUND_CANONICALIZED>
1

> <PUBCHEM_CACTVS_COMPLEXITY>
448

> <PUBCHEM_CACTVS_HBOND_ACCEPTOR>
15

> <PUBCHEM_CACTVS_HBOND_DONOR>
1

> <PUBCHEM_CACTVS_ROTATABLE_BOND>
5

> <PUBCHEM_CACTVS_SUBSKEYS>
AAADcQBgMcAAAAAAAAAAAAAAAAAAAAAAAAAAAAAAAAAAAAAAAAAACwAACAAACAAAgBAACAAAAgAIAACQCAAAAAAAAAAAAAEAAAAAABIAAAAAQAAEAAAAAAGIyCCAAAAAAAAAAAAAAAAAAAAAAAAAAAAAAA==

> <PUBCHEM_IUPAC_OPENEYE_NAME>
2,2,3,3,4,4,5,5,6,6,7,7,7-tridecafluoroheptanoic acid

> <PUBCHEM_IUPAC_CAS_NAME>
2,2,3,3,4,4,5,5,6,6,7,7,7-tridecafluoroheptanoic acid

> <PUBCHEM_IUPAC_NAME_MARKUP>
2,2,3,3,4,4,5,5,6,6,7,7,7-tridecafluoroheptanoic acid

> <PUBCHEM_IUPAC_NAME>
2,2,3,3,4,4,5,5,6,6,7,7,7-tridecafluoroheptanoic acid

> <PUBCHEM_IUPAC_SYSTEMATIC_NAME>
2,2,3,3,4,4,5,5,6,6,7,7,7-tridecakis(fluoranyl)heptanoic acid

> <PUBCHEM_IUPAC_TRADITIONAL_NAME>
2,2,3,3,4,4,5,5,6,6,7,7,7-tridecafluoroenanthic acid

> <PUBCHEM_IUPAC_INCHI>
InChI=1S/C7HF13O2/c8-2(9,1(21)22)3(10,11)4(12,13)5(14,15)6(16,17)7(18,19)20/h(H,21,22)

> <PUBCHEM_IUPAC_INCHIKEY>
ZWBAMYVPMDSJGQ-UHFFFAOYSA-N

> <PUBCHEM_XLOGP3_AA>
4.3

> <PUBCHEM_EXACT_MASS>
363.9768954

> <PUBCHEM_MOLECULAR_FORMULA>
C7HF13O2

> <PUBCHEM_MOLECULAR_WEIGHT>
364.06

> <PUBCHEM_SMILES>
C(=O)(C(C(C(C(C(C(F)(F)F)(F)F)(F)F)(F)F)(F)F)(F)F)O

> <PUBCHEM_CONNECTIVITY_SMILES>
C(=O)(C(C(C(C(C(C(F)(F)F)(F)F)(F)F)(F)F)(F)F)(F)F)O

> <PUBCHEM_CACTVS_TPSA>
37.3

> <PUBCHEM_MONOISOTOPIC_WEIGHT>
363.9768954

> <PUBCHEM_TOTAL_CHARGE>
0

> <PUBCHEM_HEAVY_ATOM_COUNT>
22

> <PUBCHEM_ATOM_DEF_STEREO_COUNT>
0

> <PUBCHEM_ATOM_UDEF_STEREO_COUNT>
0

> <PUBCHEM_BOND_DEF_STEREO_COUNT>
0

> <PUBCHEM_BOND_UDEF_STEREO_COUNT>
0

> <PUBCHEM_ISOTOPIC_ATOM_COUNT>
0

> <PUBCHEM_COMPONENT_COUNT>
1

> <PUBCHEM_CACTVS_TAUTO_COUNT>
-1

> <PUBCHEM_COORDINATE_TYPE>
1
5
255

$$$$
