68084
  -OEChem-05122608192D

 30 32  0     0  0  0  0  0  0999 V2000
    3.8000    0.2327    0.0000 C   0  0  0  0  0  0  0  0  0  0  0  0
    4.6660    0.7327    0.0000 C   0  0  0  0  0  0  0  0  0  0  0  0
    3.8000   -0.7673    0.0000 C   0  0  0  0  0  0  0  0  0  0  0  0
    5.5321    0.2327    0.0000 C   0  0  0  0  0  0  0  0  0  0  0  0
    2.9061   -1.3020    0.0000 C   0  0  0  0  0  0  0  0  0  0  0  0
    4.6660   -1.2673    0.0000 C   0  0  0  0  0  0  0  0  0  0  0  0
    5.5321   -0.7673    0.0000 C   0  0  0  0  0  0  0  0  0  0  0  0
    4.6500    1.7742    0.0000 C   0  0  0  0  0  0  0  0  0  0  0  0
    6.4421    0.7395    0.0000 C   0  0  0  0  0  0  0  0  0  0  0  0
    2.9061    0.7673    0.0000 C   0  0  0  0  0  0  0  0  0  0  0  0
    6.4501    1.7811    0.0000 C   0  0  0  0  0  0  0  0  0  0  0  0
    5.5480    2.3019    0.0000 C   0  0  0  0  0  0  0  0  0  0  0  0
    2.0000   -0.7881    0.0000 C   0  0  0  0  0  0  0  0  0  0  0  0
    2.0000    0.2535    0.0000 C   0  0  0  0  0  0  0  0  0  0  0  0
    2.9176   -2.3019    0.0000 C   0  0  0  0  0  0  0  0  0  0  0  0
    7.3180    2.2778    0.0000 C   0  0  0  0  0  0  0  0  0  0  0  0
    4.6660   -1.8873    0.0000 H   0  0  0  0  0  0  0  0  0  0  0  0
    6.0690   -1.0773    0.0000 H   0  0  0  0  0  0  0  0  0  0  0  0
    4.1095    2.0779    0.0000 H   0  0  0  0  0  0  0  0  0  0  0  0
    6.9754    0.4233    0.0000 H   0  0  0  0  0  0  0  0  0  0  0  0
    2.9132    1.3873    0.0000 H   0  0  0  0  0  0  0  0  0  0  0  0
    5.5456    2.9219    0.0000 H   0  0  0  0  0  0  0  0  0  0  0  0
    1.4643   -1.1002    0.0000 H   0  0  0  0  0  0  0  0  0  0  0  0
    1.4643    0.5655    0.0000 H   0  0  0  0  0  0  0  0  0  0  0  0
    2.2977   -2.3091    0.0000 H   0  0  0  0  0  0  0  0  0  0  0  0
    2.9248   -2.9219    0.0000 H   0  0  0  0  0  0  0  0  0  0  0  0
    3.5376   -2.2948    0.0000 H   0  0  0  0  0  0  0  0  0  0  0  0
    7.6260    1.7396    0.0000 H   0  0  0  0  0  0  0  0  0  0  0  0
    7.8562    2.5857    0.0000 H   0  0  0  0  0  0  0  0  0  0  0  0
    7.0101    2.8159    0.0000 H   0  0  0  0  0  0  0  0  0  0  0  0
  1  2  1  0  0  0  0
  1  3  1  0  0  0  0
  1 10  2  0  0  0  0
  2  4  2  0  0  0  0
  2  8  1  0  0  0  0
  3  5  2  0  0  0  0
  3  6  1  0  0  0  0
  4  7  1  0  0  0  0
  4  9  1  0  0  0  0
  5 13  1  0  0  0  0
  5 15  1  0  0  0  0
  6  7  2  0  0  0  0
  6 17  1  0  0  0  0
  7 18  1  0  0  0  0
  8 12  2  0  0  0  0
  8 19  1  0  0  0  0
  9 11  2  0  0  0  0
  9 20  1  0  0  0  0
 10 14  1  0  0  0  0
 10 21  1  0  0  0  0
 11 12  1  0  0  0  0
 11 16  1  0  0  0  0
 12 22  1  0  0  0  0
 13 14  2  0  0  0  0
 13 23  1  0  0  0  0
 14 24  1  0  0  0  0
 15 25  1  0  0  0  0
 15 26  1  0  0  0  0
 15 27  1  0  0  0  0
 16 28  1  0  0  0  0
 16 29  1  0  0  0  0
 16 30  1  0  0  0  0
M  END
> <PUBCHEM_COMPOUND_CID>
68084

> <PUBCHEM_COMPOUND_CANONICALIZED>
1

> <PUBCHEM_CACTVS_COMPLEXITY>
244

> <PUBCHEM_CACTVS_HBOND_ACCEPTOR>
0

> <PUBCHEM_CACTVS_HBOND_DONOR>
0

> <PUBCHEM_CACTVS_ROTATABLE_BOND>
0

> <PUBCHEM_CACTVS_SUBSKEYS>
AAADccB4AAAAAAAAAAAAAAAAAAAAAAAAAAAwYMAAAAAAAADBVAAAGAAAAAAADACAGAAyAMAAAACAAiBCAAACAAAgAAAIiAAAAIgIICKAERCAIAAggAAIiAcAgMAOwAACAAAQAACAAAQAACAAAAAAAAAAAA==

> <PUBCHEM_IUPAC_OPENEYE_NAME>
1,7-dimethylphenanthrene

> <PUBCHEM_IUPAC_CAS_NAME>
1,7-dimethylphenanthrene

> <PUBCHEM_IUPAC_NAME_MARKUP>
1,7-dimethylphenanthrene

> <PUBCHEM_IUPAC_NAME>
1,7-dimethylphenanthrene

> <PUBCHEM_IUPAC_SYSTEMATIC_NAME>
1,7-dimethylphenanthrene

> <PUBCHEM_IUPAC_TRADITIONAL_NAME>
1,7-dimethylphenanthrene

> <PUBCHEM_IUPAC_INCHI>
InChI=1S/C16H14/c1-11-6-8-15-13(10-11)7-9-14-12(2)4-3-5-16(14)15/h3-10H,1-2H3

> <PUBCHEM_IUPAC_INCHIKEY>
NZCMUISOTIPJAM-UHFFFAOYSA-N

> <PUBCHEM_XLOGP3>
5.7

> <PUBCHEM_EXACT_MASS>
206.109550447

> <PUBCHEM_MOLECULAR_FORMULA>
C16H14

> <PUBCHEM_MOLECULAR_WEIGHT>
206.28

> <PUBCHEM_SMILES>
CC1=CC2=C(C=C1)C3=CC=CC(=C3C=C2)C

> <PUBCHEM_CONNECTIVITY_SMILES>
CC1=CC2=C(C=C1)C3=CC=CC(=C3C=C2)C

> <PUBCHEM_CACTVS_TPSA>
0

> <PUBCHEM_MONOISOTOPIC_WEIGHT>
206.109550447

> <PUBCHEM_TOTAL_CHARGE>
0

> <PUBCHEM_HEAVY_ATOM_COUNT>
16

> <PUBCHEM_ATOM_DEF_STEREO_COUNT>
0

> <PUBCHEM_ATOM_UDEF_STEREO_COUNT>
0

> <PUBCHEM_BOND_DEF_STEREO_COUNT>
0

> <PUBCHEM_BOND_UDEF_STEREO_COUNT>
0

> <PUBCHEM_ISOTOPIC_ATOM_COUNT>
0

> <PUBCHEM_COMPONENT_COUNT>
1

> <PUBCHEM_CACTVS_TAUTO_COUNT>
-1

> <PUBCHEM_COORDINATE_TYPE>
1
5
255

> <PUBCHEM_BONDANNOTATIONS>
1  10  8
1  2  8
1  3  8
10  14  8
11  12  8
13  14  8
2  4  8
2  8  8
3  5  8
3  6  8
4  7  8
4  9  8
5  13  8
6  7  8
8  12  8
9  11  8

$$$$
