6815
  -OEChem-05122609512D

 66 67  0     0  0  0  0  0  0999 V2000
    6.0010   -3.8450    0.0000 O   0  0  0  0  0  0  0  0  0  0  0  0
    2.5369    2.1550    0.0000 O   0  0  0  0  0  0  0  0  0  0  0  0
    6.0010    0.1550    0.0000 C   0  0  0  0  0  0  0  0  0  0  0  0
    6.0010   -0.8450    0.0000 C   0  0  0  0  0  0  0  0  0  0  0  0
    5.1350    0.6550    0.0000 C   0  0  0  0  0  0  0  0  0  0  0  0
    6.8671    0.6550    0.0000 C   0  0  0  0  0  0  0  0  0  0  0  0
    4.2690   -2.8450    0.0000 C   0  0  0  0  0  0  0  0  0  0  0  0
    4.2690    3.1550    0.0000 C   0  0  0  0  0  0  0  0  0  0  0  0
    5.1350   -2.3450    0.0000 C   0  0  0  0  0  0  0  0  0  0  0  0
    4.2690    2.1550    0.0000 C   0  0  0  0  0  0  0  0  0  0  0  0
    5.1350   -1.3450    0.0000 C   0  0  0  0  0  0  0  0  0  0  0  0
    5.1350    1.6550    0.0000 C   0  0  0  0  0  0  0  0  0  0  0  0
    6.8671   -1.3450    0.0000 C   0  0  0  0  0  0  0  0  0  0  0  0
    4.2690    0.1550    0.0000 C   0  0  0  0  0  0  0  0  0  0  0  0
    6.8671    1.6550    0.0000 C   0  0  0  0  0  0  0  0  0  0  0  0
    6.0010   -2.8450    0.0000 C   0  0  0  0  0  0  0  0  0  0  0  0
    3.4030    1.6550    0.0000 C   0  0  0  0  0  0  0  0  0  0  0  0
    6.8671   -2.3450    0.0000 C   0  0  0  0  0  0  0  0  0  0  0  0
    3.4030    0.6550    0.0000 C   0  0  0  0  0  0  0  0  0  0  0  0
    3.4030   -3.3450    0.0000 C   0  0  0  0  0  0  0  0  0  0  0  0
    4.7690   -3.7110    0.0000 C   0  0  0  0  0  0  0  0  0  0  0  0
    3.7690   -1.9790    0.0000 C   0  0  0  0  0  0  0  0  0  0  0  0
    4.2690    4.1550    0.0000 C   0  0  0  0  0  0  0  0  0  0  0  0
    5.2690    3.1550    0.0000 C   0  0  0  0  0  0  0  0  0  0  0  0
    3.2690    3.1550    0.0000 C   0  0  0  0  0  0  0  0  0  0  0  0
    7.7331   -0.8450    0.0000 C   0  0  0  0  0  0  0  0  0  0  0  0
    4.2690   -0.8450    0.0000 C   0  0  0  0  0  0  0  0  0  0  0  0
    7.7331    2.1550    0.0000 C   0  0  0  0  0  0  0  0  0  0  0  0
    6.5380   -0.1550    0.0000 H   0  0  0  0  0  0  0  0  0  0  0  0
    7.0791    0.0724    0.0000 H   0  0  0  0  0  0  0  0  0  0  0  0
    7.4776    0.7627    0.0000 H   0  0  0  0  0  0  0  0  0  0  0  0
    4.5981   -1.0350    0.0000 H   0  0  0  0  0  0  0  0  0  0  0  0
    5.6720    1.9650    0.0000 H   0  0  0  0  0  0  0  0  0  0  0  0
    6.6550    2.2376    0.0000 H   0  0  0  0  0  0  0  0  0  0  0  0
    6.2565    1.5473    0.0000 H   0  0  0  0  0  0  0  0  0  0  0  0
    7.4040   -2.6550    0.0000 H   0  0  0  0  0  0  0  0  0  0  0  0
    2.8660    0.3450    0.0000 H   0  0  0  0  0  0  0  0  0  0  0  0
    3.0930   -2.8081    0.0000 H   0  0  0  0  0  0  0  0  0  0  0  0
    2.8660   -3.6550    0.0000 H   0  0  0  0  0  0  0  0  0  0  0  0
    3.7130   -3.8819    0.0000 H   0  0  0  0  0  0  0  0  0  0  0  0
    4.2321   -4.0210    0.0000 H   0  0  0  0  0  0  0  0  0  0  0  0
    5.0790   -4.2480    0.0000 H   0  0  0  0  0  0  0  0  0  0  0  0
    5.3059   -3.4010    0.0000 H   0  0  0  0  0  0  0  0  0  0  0  0
    4.3059   -1.6690    0.0000 H   0  0  0  0  0  0  0  0  0  0  0  0
    3.4590   -1.4420    0.0000 H   0  0  0  0  0  0  0  0  0  0  0  0
    3.2321   -2.2890    0.0000 H   0  0  0  0  0  0  0  0  0  0  0  0
    4.8890    4.1550    0.0000 H   0  0  0  0  0  0  0  0  0  0  0  0
    4.2690    4.7750    0.0000 H   0  0  0  0  0  0  0  0  0  0  0  0
    3.6490    4.1550    0.0000 H   0  0  0  0  0  0  0  0  0  0  0  0
    5.2690    2.5350    0.0000 H   0  0  0  0  0  0  0  0  0  0  0  0
    5.8890    3.1550    0.0000 H   0  0  0  0  0  0  0  0  0  0  0  0
    5.2690    3.7750    0.0000 H   0  0  0  0  0  0  0  0  0  0  0  0
    3.2690    3.7750    0.0000 H   0  0  0  0  0  0  0  0  0  0  0  0
    2.6490    3.1550    0.0000 H   0  0  0  0  0  0  0  0  0  0  0  0
    3.2690    2.5350    0.0000 H   0  0  0  0  0  0  0  0  0  0  0  0
    8.0431   -1.3819    0.0000 H   0  0  0  0  0  0  0  0  0  0  0  0
    8.2700   -0.5350    0.0000 H   0  0  0  0  0  0  0  0  0  0  0  0
    7.4231   -0.3081    0.0000 H   0  0  0  0  0  0  0  0  0  0  0  0
    3.6490   -0.8450    0.0000 H   0  0  0  0  0  0  0  0  0  0  0  0
    4.2690   -1.4650    0.0000 H   0  0  0  0  0  0  0  0  0  0  0  0
    4.8890   -0.8450    0.0000 H   0  0  0  0  0  0  0  0  0  0  0  0
    8.0431    1.6181    0.0000 H   0  0  0  0  0  0  0  0  0  0  0  0
    8.2700    2.4650    0.0000 H   0  0  0  0  0  0  0  0  0  0  0  0
    7.4231    2.6919    0.0000 H   0  0  0  0  0  0  0  0  0  0  0  0
    6.5380   -4.1550    0.0000 H   0  0  0  0  0  0  0  0  0  0  0  0
    2.0000    1.8450    0.0000 H   0  0  0  0  0  0  0  0  0  0  0  0
  1 16  1  0  0  0  0
  1 65  1  0  0  0  0
  2 17  1  0  0  0  0
  2 66  1  0  0  0  0
  3  4  1  0  0  0  0
  3  5  1  0  0  0  0
  3  6  1  0  0  0  0
  3 29  1  0  0  0  0
  4 11  2  0  0  0  0
  4 13  1  0  0  0  0
  5 12  2  0  0  0  0
  5 14  1  0  0  0  0
  6 15  1  0  0  0  0
  6 30  1  0  0  0  0
  6 31  1  0  0  0  0
  7  9  1  0  0  0  0
  7 20  1  0  0  0  0
  7 21  1  0  0  0  0
  7 22  1  0  0  0  0
  8 10  1  0  0  0  0
  8 23  1  0  0  0  0
  8 24  1  0  0  0  0
  8 25  1  0  0  0  0
  9 11  1  0  0  0  0
  9 16  2  0  0  0  0
 10 12  1  0  0  0  0
 10 17  2  0  0  0  0
 11 32  1  0  0  0  0
 12 33  1  0  0  0  0
 13 18  2  0  0  0  0
 13 26  1  0  0  0  0
 14 19  2  0  0  0  0
 14 27  1  0  0  0  0
 15 28  1  0  0  0  0
 15 34  1  0  0  0  0
 15 35  1  0  0  0  0
 16 18  1  0  0  0  0
 17 19  1  0  0  0  0
 18 36  1  0  0  0  0
 19 37  1  0  0  0  0
 20 38  1  0  0  0  0
 20 39  1  0  0  0  0
 20 40  1  0  0  0  0
 21 41  1  0  0  0  0
 21 42  1  0  0  0  0
 21 43  1  0  0  0  0
 22 44  1  0  0  0  0
 22 45  1  0  0  0  0
 22 46  1  0  0  0  0
 23 47  1  0  0  0  0
 23 48  1  0  0  0  0
 23 49  1  0  0  0  0
 24 50  1  0  0  0  0
 24 51  1  0  0  0  0
 24 52  1  0  0  0  0
 25 53  1  0  0  0  0
 25 54  1  0  0  0  0
 25 55  1  0  0  0  0
 26 56  1  0  0  0  0
 26 57  1  0  0  0  0
 26 58  1  0  0  0  0
 27 59  1  0  0  0  0
 27 60  1  0  0  0  0
 27 61  1  0  0  0  0
 28 62  1  0  0  0  0
 28 63  1  0  0  0  0
 28 64  1  0  0  0  0
M  END
> <PUBCHEM_COMPOUND_CID>
6815

> <PUBCHEM_COMPOUND_CANONICALIZED>
1

> <PUBCHEM_CACTVS_COMPLEXITY>
444

> <PUBCHEM_CACTVS_HBOND_ACCEPTOR>
2

> <PUBCHEM_CACTVS_HBOND_DONOR>
2

> <PUBCHEM_CACTVS_ROTATABLE_BOND>
6

> <PUBCHEM_CACTVS_SUBSKEYS>
AAADcfB4MAAAAAAAAAAAAAAAAAAAAAAAAAAwYAAAAAAAAAABQAAAGgAACAAADwSAmAAyBoAAAgCAAiBCAAACAAAgIAAAiAAGCIgIJiKCERKAcAAkwBEImAeAwPAP4AADAAAYAADAAAYAADAAAAAAAAAAAA==

> <PUBCHEM_IUPAC_OPENEYE_NAME>
2-tert-butyl-4-[1-(5-tert-butyl-4-hydroxy-2-methyl-phenyl)butyl]-5-methyl-phenol

> <PUBCHEM_IUPAC_CAS_NAME>
2-tert-butyl-4-[1-(5-tert-butyl-4-hydroxy-2-methylphenyl)butyl]-5-methylphenol

> <PUBCHEM_IUPAC_NAME_MARKUP>
2-<I>tert</I>-butyl-4-[1-(5-<I>tert</I>-butyl-4-hydroxy-2-methylphenyl)butyl]-5-methylphenol

> <PUBCHEM_IUPAC_NAME>
2-tert-butyl-4-[1-(5-tert-butyl-4-hydroxy-2-methylphenyl)butyl]-5-methylphenol

> <PUBCHEM_IUPAC_SYSTEMATIC_NAME>
2-tert-butyl-4-[1-(5-tert-butyl-2-methyl-4-oxidanyl-phenyl)butyl]-5-methyl-phenol

> <PUBCHEM_IUPAC_TRADITIONAL_NAME>
2-tert-butyl-4-[1-(5-tert-butyl-4-hydroxy-2-methyl-phenyl)butyl]-5-methyl-phenol

> <PUBCHEM_IUPAC_INCHI>
InChI=1S/C26H38O2/c1-10-11-18(19-14-21(25(4,5)6)23(27)12-16(19)2)20-15-22(26(7,8)9)24(28)13-17(20)3/h12-15,18,27-28H,10-11H2,1-9H3

> <PUBCHEM_IUPAC_INCHIKEY>
PFANXOISJYKQRP-UHFFFAOYSA-N

> <PUBCHEM_XLOGP3_AA>
8.6

> <PUBCHEM_EXACT_MASS>
382.287180451

> <PUBCHEM_MOLECULAR_FORMULA>
C26H38O2

> <PUBCHEM_MOLECULAR_WEIGHT>
382.6

> <PUBCHEM_SMILES>
CCCC(C1=CC(=C(C=C1C)O)C(C)(C)C)C2=CC(=C(C=C2C)O)C(C)(C)C

> <PUBCHEM_CONNECTIVITY_SMILES>
CCCC(C1=CC(=C(C=C1C)O)C(C)(C)C)C2=CC(=C(C=C2C)O)C(C)(C)C

> <PUBCHEM_CACTVS_TPSA>
40.5

> <PUBCHEM_MONOISOTOPIC_WEIGHT>
382.287180451

> <PUBCHEM_TOTAL_CHARGE>
0

> <PUBCHEM_HEAVY_ATOM_COUNT>
28

> <PUBCHEM_ATOM_DEF_STEREO_COUNT>
0

> <PUBCHEM_ATOM_UDEF_STEREO_COUNT>
0

> <PUBCHEM_BOND_DEF_STEREO_COUNT>
0

> <PUBCHEM_BOND_UDEF_STEREO_COUNT>
0

> <PUBCHEM_ISOTOPIC_ATOM_COUNT>
0

> <PUBCHEM_COMPONENT_COUNT>
1

> <PUBCHEM_CACTVS_TAUTO_COUNT>
-1

> <PUBCHEM_COORDINATE_TYPE>
1
5
255

> <PUBCHEM_BONDANNOTATIONS>
10  12  8
10  17  8
13  18  8
14  19  8
16  18  8
17  19  8
4  11  8
4  13  8
5  12  8
5  14  8
9  11  8
9  16  8

$$$$
