68188
  -OEChem-05122608272D

 35 34  0     0  0  0  0  0  0999 V2000
    4.5981   -0.7990    0.0000 P   0  0  0  0  0  0  0  0  0  0  0  0
    5.4641   -0.2990    0.0000 O   0  0  0  0  0  0  0  0  0  0  0  0
    3.7321   -1.2990    0.0000 O   0  0  0  0  0  0  0  0  0  0  0  0
    4.0981    0.0670    0.0000 O   0  0  0  0  0  0  0  0  0  0  0  0
    5.0981   -1.6651    0.0000 O   0  0  0  0  0  0  0  0  0  0  0  0
    6.3301   -0.7990    0.0000 C   0  0  0  0  0  0  0  0  0  0  0  0
    2.8660   -0.7990    0.0000 C   0  0  0  0  0  0  0  0  0  0  0  0
    4.5981    0.9330    0.0000 C   0  0  0  0  0  0  0  0  0  0  0  0
    7.1962   -0.2990    0.0000 C   0  0  0  0  0  0  0  0  0  0  0  0
    6.3301   -1.7990    0.0000 C   0  0  0  0  0  0  0  0  0  0  0  0
    2.0000   -1.2990    0.0000 C   0  0  0  0  0  0  0  0  0  0  0  0
    2.8660    0.2010    0.0000 C   0  0  0  0  0  0  0  0  0  0  0  0
    4.0981    1.7990    0.0000 C   0  0  0  0  0  0  0  0  0  0  0  0
    5.5981    0.9330    0.0000 C   0  0  0  0  0  0  0  0  0  0  0  0
    5.7932   -1.1090    0.0000 H   0  0  0  0  0  0  0  0  0  0  0  0
    2.8660   -1.4190    0.0000 H   0  0  0  0  0  0  0  0  0  0  0  0
    3.9781    0.9330    0.0000 H   0  0  0  0  0  0  0  0  0  0  0  0
    7.5062   -0.8360    0.0000 H   0  0  0  0  0  0  0  0  0  0  0  0
    7.7331    0.0110    0.0000 H   0  0  0  0  0  0  0  0  0  0  0  0
    6.8862    0.2379    0.0000 H   0  0  0  0  0  0  0  0  0  0  0  0
    5.7101   -1.7990    0.0000 H   0  0  0  0  0  0  0  0  0  0  0  0
    6.3301   -2.4190    0.0000 H   0  0  0  0  0  0  0  0  0  0  0  0
    6.9501   -1.7990    0.0000 H   0  0  0  0  0  0  0  0  0  0  0  0
    1.6900   -0.7621    0.0000 H   0  0  0  0  0  0  0  0  0  0  0  0
    1.4631   -1.6090    0.0000 H   0  0  0  0  0  0  0  0  0  0  0  0
    2.3100   -1.8360    0.0000 H   0  0  0  0  0  0  0  0  0  0  0  0
    3.4860    0.2010    0.0000 H   0  0  0  0  0  0  0  0  0  0  0  0
    2.8660    0.8210    0.0000 H   0  0  0  0  0  0  0  0  0  0  0  0
    2.2460    0.2010    0.0000 H   0  0  0  0  0  0  0  0  0  0  0  0
    4.6350    2.1090    0.0000 H   0  0  0  0  0  0  0  0  0  0  0  0
    3.7881    2.3360    0.0000 H   0  0  0  0  0  0  0  0  0  0  0  0
    3.5611    1.4890    0.0000 H   0  0  0  0  0  0  0  0  0  0  0  0
    5.5981    0.3130    0.0000 H   0  0  0  0  0  0  0  0  0  0  0  0
    6.2181    0.9330    0.0000 H   0  0  0  0  0  0  0  0  0  0  0  0
    5.5981    1.5530    0.0000 H   0  0  0  0  0  0  0  0  0  0  0  0
  1  2  1  0  0  0  0
  1  3  1  0  0  0  0
  1  4  1  0  0  0  0
  1  5  2  0  0  0  0
  2  6  1  0  0  0  0
  3  7  1  0  0  0  0
  4  8  1  0  0  0  0
  6  9  1  0  0  0  0
  6 10  1  0  0  0  0
  6 15  1  0  0  0  0
  7 11  1  0  0  0  0
  7 12  1  0  0  0  0
  7 16  1  0  0  0  0
  8 13  1  0  0  0  0
  8 14  1  0  0  0  0
  8 17  1  0  0  0  0
  9 18  1  0  0  0  0
  9 19  1  0  0  0  0
  9 20  1  0  0  0  0
 10 21  1  0  0  0  0
 10 22  1  0  0  0  0
 10 23  1  0  0  0  0
 11 24  1  0  0  0  0
 11 25  1  0  0  0  0
 11 26  1  0  0  0  0
 12 27  1  0  0  0  0
 12 28  1  0  0  0  0
 12 29  1  0  0  0  0
 13 30  1  0  0  0  0
 13 31  1  0  0  0  0
 13 32  1  0  0  0  0
 14 33  1  0  0  0  0
 14 34  1  0  0  0  0
 14 35  1  0  0  0  0
M  END
> <PUBCHEM_COMPOUND_CID>
68188

> <PUBCHEM_COMPOUND_CANONICALIZED>
1

> <PUBCHEM_CACTVS_COMPLEXITY>
168

> <PUBCHEM_CACTVS_HBOND_ACCEPTOR>
4

> <PUBCHEM_CACTVS_HBOND_DONOR>
0

> <PUBCHEM_CACTVS_ROTATABLE_BOND>
6

> <PUBCHEM_CACTVS_SUBSKEYS>
AAADceBwOAIAAAAAAAAAAAAAAAAAAAAAAAAAAAAAAAAAAAAAAAAAGgAAACAACBSggAICAAAAARAAQAAAAIAAAAAAAAAAAAAAAAAAAAAAAAAAAAAAAAAAAAAAAAAAAAAAAAAAAAAAAAAAAAAAAAAAAAAAAA==

> <PUBCHEM_IUPAC_OPENEYE_NAME>
triisopropyl phosphate

> <PUBCHEM_IUPAC_CAS_NAME>
phosphoric acid tripropan-2-yl ester

> <PUBCHEM_IUPAC_NAME_MARKUP>
tripropan-2-yl phosphate

> <PUBCHEM_IUPAC_NAME>
tripropan-2-yl phosphate

> <PUBCHEM_IUPAC_SYSTEMATIC_NAME>
tripropan-2-yl phosphate

> <PUBCHEM_IUPAC_TRADITIONAL_NAME>
phosphoric acid triisopropyl ester

> <PUBCHEM_IUPAC_INCHI>
InChI=1S/C9H21O4P/c1-7(2)11-14(10,12-8(3)4)13-9(5)6/h7-9H,1-6H3

> <PUBCHEM_IUPAC_INCHIKEY>
OXFUXNFMHFCELM-UHFFFAOYSA-N

> <PUBCHEM_XLOGP3_AA>
1.9

> <PUBCHEM_EXACT_MASS>
224.11774614

> <PUBCHEM_MOLECULAR_FORMULA>
C9H21O4P

> <PUBCHEM_MOLECULAR_WEIGHT>
224.23

> <PUBCHEM_SMILES>
CC(C)OP(=O)(OC(C)C)OC(C)C

> <PUBCHEM_CONNECTIVITY_SMILES>
CC(C)OP(=O)(OC(C)C)OC(C)C

> <PUBCHEM_CACTVS_TPSA>
44.8

> <PUBCHEM_MONOISOTOPIC_WEIGHT>
224.11774614

> <PUBCHEM_TOTAL_CHARGE>
0

> <PUBCHEM_HEAVY_ATOM_COUNT>
14

> <PUBCHEM_ATOM_DEF_STEREO_COUNT>
0

> <PUBCHEM_ATOM_UDEF_STEREO_COUNT>
0

> <PUBCHEM_BOND_DEF_STEREO_COUNT>
0

> <PUBCHEM_BOND_UDEF_STEREO_COUNT>
0

> <PUBCHEM_ISOTOPIC_ATOM_COUNT>
0

> <PUBCHEM_COMPONENT_COUNT>
1

> <PUBCHEM_CACTVS_TAUTO_COUNT>
-1

> <PUBCHEM_COORDINATE_TYPE>
1
5
255

$$$$
