68200026
  -OEChem-05122610002D

 80 82  0     0  0  0  0  0  0999 V2000
   10.6603    2.0000    0.0000 O   0  0  0  0  0  0  0  0  0  0  0  0
    7.1962   -4.0000    0.0000 O   0  0  0  0  0  0  0  0  0  0  0  0
    3.7321    2.0000    0.0000 O   0  0  0  0  0  0  0  0  0  0  0  0
   11.5263    0.5000    0.0000 O   0  0  0  0  0  0  0  0  0  0  0  0
    8.9282   -4.0000    0.0000 O   0  0  0  0  0  0  0  0  0  0  0  0
    4.5981    3.5000    0.0000 O   0  0  0  0  0  0  0  0  0  0  0  0
    9.7942    3.5000    0.0000 O   0  0  0  0  0  0  0  0  0  0  0  0
    5.4641   -4.0000    0.0000 O   0  0  0  0  0  0  0  0  0  0  0  0
    2.8660    0.5000    0.0000 O   0  0  0  0  0  0  0  0  0  0  0  0
    7.1962    0.0000    0.0000 C   0  0  0  0  0  0  0  0  0  0  0  0
    8.0622    0.5000    0.0000 C   0  0  0  0  0  0  0  0  0  0  0  0
    7.1962   -1.0000    0.0000 C   0  0  0  0  0  0  0  0  0  0  0  0
    6.3301    0.5000    0.0000 C   0  0  0  0  0  0  0  0  0  0  0  0
    8.0622    1.5000    0.0000 C   0  0  0  0  0  0  0  0  0  0  0  0
    6.3301   -1.5000    0.0000 C   0  0  0  0  0  0  0  0  0  0  0  0
    5.4641    0.0000    0.0000 C   0  0  0  0  0  0  0  0  0  0  0  0
    8.9282    0.0000    0.0000 C   0  0  0  0  0  0  0  0  0  0  0  0
    8.0622   -1.5000    0.0000 C   0  0  0  0  0  0  0  0  0  0  0  0
    6.3301    1.5000    0.0000 C   0  0  0  0  0  0  0  0  0  0  0  0
    8.9282    2.0000    0.0000 C   0  0  0  0  0  0  0  0  0  0  0  0
    6.3301   -2.5000    0.0000 C   0  0  0  0  0  0  0  0  0  0  0  0
    4.5981    0.5000    0.0000 C   0  0  0  0  0  0  0  0  0  0  0  0
    9.7942    0.5000    0.0000 C   0  0  0  0  0  0  0  0  0  0  0  0
    8.0622   -2.5000    0.0000 C   0  0  0  0  0  0  0  0  0  0  0  0
    5.4641    2.0000    0.0000 C   0  0  0  0  0  0  0  0  0  0  0  0
    9.7942    1.5000    0.0000 C   0  0  0  0  0  0  0  0  0  0  0  0
    7.1962   -3.0000    0.0000 C   0  0  0  0  0  0  0  0  0  0  0  0
    4.5981    1.5000    0.0000 C   0  0  0  0  0  0  0  0  0  0  0  0
   10.6603    0.0000    0.0000 C   0  0  0  0  0  0  0  0  0  0  0  0
    8.9282   -3.0000    0.0000 C   0  0  0  0  0  0  0  0  0  0  0  0
    5.4641    3.0000    0.0000 C   0  0  0  0  0  0  0  0  0  0  0  0
    8.9282    3.0000    0.0000 C   0  0  0  0  0  0  0  0  0  0  0  0
    5.4641   -3.0000    0.0000 C   0  0  0  0  0  0  0  0  0  0  0  0
    3.7321    0.0000    0.0000 C   0  0  0  0  0  0  0  0  0  0  0  0
   12.3923    0.0000    0.0000 C   0  0  0  0  0  0  0  0  0  0  0  0
    9.7942   -4.5000    0.0000 C   0  0  0  0  0  0  0  0  0  0  0  0
    4.5981    4.5000    0.0000 C   0  0  0  0  0  0  0  0  0  0  0  0
    9.7942    4.5000    0.0000 C   0  0  0  0  0  0  0  0  0  0  0  0
    4.5981   -4.5000    0.0000 C   0  0  0  0  0  0  0  0  0  0  0  0
    2.0000    0.0000    0.0000 C   0  0  0  0  0  0  0  0  0  0  0  0
    6.6592   -0.3100    0.0000 H   0  0  0  0  0  0  0  0  0  0  0  0
    7.5252    1.8100    0.0000 H   0  0  0  0  0  0  0  0  0  0  0  0
    5.7932   -1.1900    0.0000 H   0  0  0  0  0  0  0  0  0  0  0  0
    5.4641   -0.6200    0.0000 H   0  0  0  0  0  0  0  0  0  0  0  0
    8.9282   -0.6200    0.0000 H   0  0  0  0  0  0  0  0  0  0  0  0
    8.5991   -1.1900    0.0000 H   0  0  0  0  0  0  0  0  0  0  0  0
    6.8671    1.8100    0.0000 H   0  0  0  0  0  0  0  0  0  0  0  0
   10.2617   -0.4749    0.0000 H   0  0  0  0  0  0  0  0  0  0  0  0
   11.0588   -0.4749    0.0000 H   0  0  0  0  0  0  0  0  0  0  0  0
    9.5388   -3.1077    0.0000 H   0  0  0  0  0  0  0  0  0  0  0  0
    9.1403   -2.4174    0.0000 H   0  0  0  0  0  0  0  0  0  0  0  0
    6.0747    2.8923    0.0000 H   0  0  0  0  0  0  0  0  0  0  0  0
    5.6762    3.5826    0.0000 H   0  0  0  0  0  0  0  0  0  0  0  0
    8.7162    3.5826    0.0000 H   0  0  0  0  0  0  0  0  0  0  0  0
    8.3176    2.8923    0.0000 H   0  0  0  0  0  0  0  0  0  0  0  0
    5.2521   -2.4174    0.0000 H   0  0  0  0  0  0  0  0  0  0  0  0
    4.8535   -3.1077    0.0000 H   0  0  0  0  0  0  0  0  0  0  0  0
    3.3335   -0.4749    0.0000 H   0  0  0  0  0  0  0  0  0  0  0  0
    4.1306   -0.4749    0.0000 H   0  0  0  0  0  0  0  0  0  0  0  0
   10.6603    2.6200    0.0000 H   0  0  0  0  0  0  0  0  0  0  0  0
    6.6592   -4.3100    0.0000 H   0  0  0  0  0  0  0  0  0  0  0  0
    3.7321    2.6200    0.0000 H   0  0  0  0  0  0  0  0  0  0  0  0
   12.0823   -0.5369    0.0000 H   0  0  0  0  0  0  0  0  0  0  0  0
   12.9292   -0.3100    0.0000 H   0  0  0  0  0  0  0  0  0  0  0  0
   12.7023    0.5369    0.0000 H   0  0  0  0  0  0  0  0  0  0  0  0
    9.4842   -5.0369    0.0000 H   0  0  0  0  0  0  0  0  0  0  0  0
   10.3312   -4.8100    0.0000 H   0  0  0  0  0  0  0  0  0  0  0  0
   10.1042   -3.9631    0.0000 H   0  0  0  0  0  0  0  0  0  0  0  0
    5.2181    4.5000    0.0000 H   0  0  0  0  0  0  0  0  0  0  0  0
    4.5981    5.1200    0.0000 H   0  0  0  0  0  0  0  0  0  0  0  0
    3.9781    4.5000    0.0000 H   0  0  0  0  0  0  0  0  0  0  0  0
   10.4142    4.5000    0.0000 H   0  0  0  0  0  0  0  0  0  0  0  0
    9.7942    5.1200    0.0000 H   0  0  0  0  0  0  0  0  0  0  0  0
    9.1742    4.5000    0.0000 H   0  0  0  0  0  0  0  0  0  0  0  0
    4.2881   -3.9631    0.0000 H   0  0  0  0  0  0  0  0  0  0  0  0
    4.0611   -4.8100    0.0000 H   0  0  0  0  0  0  0  0  0  0  0  0
    4.9081   -5.0369    0.0000 H   0  0  0  0  0  0  0  0  0  0  0  0
    1.6900    0.5369    0.0000 H   0  0  0  0  0  0  0  0  0  0  0  0
    1.4631   -0.3100    0.0000 H   0  0  0  0  0  0  0  0  0  0  0  0
    2.3100   -0.5369    0.0000 H   0  0  0  0  0  0  0  0  0  0  0  0
  1 26  1  0  0  0  0
  1 60  1  0  0  0  0
  2 27  1  0  0  0  0
  2 61  1  0  0  0  0
  3 28  1  0  0  0  0
  3 62  1  0  0  0  0
  4 29  1  0  0  0  0
  4 35  1  0  0  0  0
  5 30  1  0  0  0  0
  5 36  1  0  0  0  0
  6 31  1  0  0  0  0
  6 37  1  0  0  0  0
  7 32  1  0  0  0  0
  7 38  1  0  0  0  0
  8 33  1  0  0  0  0
  8 39  1  0  0  0  0
  9 34  1  0  0  0  0
  9 40  1  0  0  0  0
 10 11  1  0  0  0  0
 10 12  1  0  0  0  0
 10 13  1  0  0  0  0
 10 41  1  0  0  0  0
 11 14  2  0  0  0  0
 11 17  1  0  0  0  0
 12 15  2  0  0  0  0
 12 18  1  0  0  0  0
 13 16  2  0  0  0  0
 13 19  1  0  0  0  0
 14 20  1  0  0  0  0
 14 42  1  0  0  0  0
 15 21  1  0  0  0  0
 15 43  1  0  0  0  0
 16 22  1  0  0  0  0
 16 44  1  0  0  0  0
 17 23  2  0  0  0  0
 17 45  1  0  0  0  0
 18 24  2  0  0  0  0
 18 46  1  0  0  0  0
 19 25  2  0  0  0  0
 19 47  1  0  0  0  0
 20 26  2  0  0  0  0
 20 32  1  0  0  0  0
 21 27  2  0  0  0  0
 21 33  1  0  0  0  0
 22 28  2  0  0  0  0
 22 34  1  0  0  0  0
 23 26  1  0  0  0  0
 23 29  1  0  0  0  0
 24 27  1  0  0  0  0
 24 30  1  0  0  0  0
 25 28  1  0  0  0  0
 25 31  1  0  0  0  0
 29 48  1  0  0  0  0
 29 49  1  0  0  0  0
 30 50  1  0  0  0  0
 30 51  1  0  0  0  0
 31 52  1  0  0  0  0
 31 53  1  0  0  0  0
 32 54  1  0  0  0  0
 32 55  1  0  0  0  0
 33 56  1  0  0  0  0
 33 57  1  0  0  0  0
 34 58  1  0  0  0  0
 34 59  1  0  0  0  0
 35 63  1  0  0  0  0
 35 64  1  0  0  0  0
 35 65  1  0  0  0  0
 36 66  1  0  0  0  0
 36 67  1  0  0  0  0
 36 68  1  0  0  0  0
 37 69  1  0  0  0  0
 37 70  1  0  0  0  0
 37 71  1  0  0  0  0
 38 72  1  0  0  0  0
 38 73  1  0  0  0  0
 38 74  1  0  0  0  0
 39 75  1  0  0  0  0
 39 76  1  0  0  0  0
 39 77  1  0  0  0  0
 40 78  1  0  0  0  0
 40 79  1  0  0  0  0
 40 80  1  0  0  0  0
M  END
> <PUBCHEM_COMPOUND_CID>
68200026

> <PUBCHEM_COMPOUND_CANONICALIZED>
1

> <PUBCHEM_CACTVS_COMPLEXITY>
557

> <PUBCHEM_CACTVS_HBOND_ACCEPTOR>
9

> <PUBCHEM_CACTVS_HBOND_DONOR>
3

> <PUBCHEM_CACTVS_ROTATABLE_BOND>
15

> <PUBCHEM_CACTVS_SUBSKEYS>
AAADcfB4PAAAAAAAAAAAAAAAAAAAAAAAAAAwYMAAAAAAAAABUAAAGgAACAAADQSgmAIyBoAABgCAAiBCAAACAAAgIAAAiAAECIgIJyKCMRqAcAAlwBEIuAeA4PgOoAACAAAIAABAAAQAABAAAAAAAAAAAA==

> <PUBCHEM_IUPAC_OPENEYE_NAME>
4-[bis[4-hydroxy-3,5-bis(methoxymethyl)phenyl]methyl]-2,6-bis(methoxymethyl)phenol

> <PUBCHEM_IUPAC_CAS_NAME>
4-[bis[4-hydroxy-3,5-bis(methoxymethyl)phenyl]methyl]-2,6-bis(methoxymethyl)phenol

> <PUBCHEM_IUPAC_NAME_MARKUP>
4-[bis[4-hydroxy-3,5-bis(methoxymethyl)phenyl]methyl]-2,6-bis(methoxymethyl)phenol

> <PUBCHEM_IUPAC_NAME>
4-[bis[4-hydroxy-3,5-bis(methoxymethyl)phenyl]methyl]-2,6-bis(methoxymethyl)phenol

> <PUBCHEM_IUPAC_SYSTEMATIC_NAME>
4-[bis[3,5-bis(methoxymethyl)-4-oxidanyl-phenyl]methyl]-2,6-bis(methoxymethyl)phenol

> <PUBCHEM_IUPAC_TRADITIONAL_NAME>
4-[bis[4-hydroxy-3,5-bis(methoxymethyl)phenyl]methyl]-2,6-bis(methoxymethyl)phenol

> <PUBCHEM_IUPAC_INCHI>
InChI=1S/C31H40O9/c1-35-13-22-7-19(8-23(14-36-2)29(22)32)28(20-9-24(15-37-3)30(33)25(10-20)16-38-4)21-11-26(17-39-5)31(34)27(12-21)18-40-6/h7-12,28,32-34H,13-18H2,1-6H3

> <PUBCHEM_IUPAC_INCHIKEY>
GENTZLNTHWIUKT-UHFFFAOYSA-N

> <PUBCHEM_XLOGP3_AA>
2.1

> <PUBCHEM_EXACT_MASS>
556.26723285

> <PUBCHEM_MOLECULAR_FORMULA>
C31H40O9

> <PUBCHEM_MOLECULAR_WEIGHT>
556.6

> <PUBCHEM_SMILES>
COCC1=CC(=CC(=C1O)COC)C(C2=CC(=C(C(=C2)COC)O)COC)C3=CC(=C(C(=C3)COC)O)COC

> <PUBCHEM_CONNECTIVITY_SMILES>
COCC1=CC(=CC(=C1O)COC)C(C2=CC(=C(C(=C2)COC)O)COC)C3=CC(=C(C(=C3)COC)O)COC

> <PUBCHEM_CACTVS_TPSA>
116

> <PUBCHEM_MONOISOTOPIC_WEIGHT>
556.26723285

> <PUBCHEM_TOTAL_CHARGE>
0

> <PUBCHEM_HEAVY_ATOM_COUNT>
40

> <PUBCHEM_ATOM_DEF_STEREO_COUNT>
0

> <PUBCHEM_ATOM_UDEF_STEREO_COUNT>
0

> <PUBCHEM_BOND_DEF_STEREO_COUNT>
0

> <PUBCHEM_BOND_UDEF_STEREO_COUNT>
0

> <PUBCHEM_ISOTOPIC_ATOM_COUNT>
0

> <PUBCHEM_COMPONENT_COUNT>
1

> <PUBCHEM_CACTVS_TAUTO_COUNT>
-1

> <PUBCHEM_COORDINATE_TYPE>
1
5
255

> <PUBCHEM_BONDANNOTATIONS>
11  14  8
11  17  8
12  15  8
12  18  8
13  16  8
13  19  8
14  20  8
15  21  8
16  22  8
17  23  8
18  24  8
19  25  8
20  26  8
21  27  8
22  28  8
23  26  8
24  27  8
25  28  8

$$$$
