68414
  -OEChem-05122610032D

 57 59  0     0  0  0  0  0  0999 V2000
    2.3100    0.0000    0.0000 O   0  0  0  0  0  0  0  0  0  0  0  0
    3.3100    4.0000    0.0000 N   0  0  0  0  0  0  0  0  0  0  0  0
    3.3100   -4.0000    0.0000 N   0  0  0  0  0  0  0  0  0  0  0  0
    7.3100    0.0000    0.0000 N   0  0  0  0  0  0  0  0  0  0  0  0
    3.3100    0.0000    0.0000 C   0  0  0  0  0  0  0  0  0  0  0  0
    3.3100    1.0000    0.0000 C   0  0  0  0  0  0  0  0  0  0  0  0
    3.3100   -1.0000    0.0000 C   0  0  0  0  0  0  0  0  0  0  0  0
    4.3100    0.0000    0.0000 C   0  0  0  0  0  0  0  0  0  0  0  0
    2.4440    1.5000    0.0000 C   0  0  0  0  0  0  0  0  0  0  0  0
    2.4440   -1.5000    0.0000 C   0  0  0  0  0  0  0  0  0  0  0  0
    4.1760    1.5000    0.0000 C   0  0  0  0  0  0  0  0  0  0  0  0
    4.1760   -1.5000    0.0000 C   0  0  0  0  0  0  0  0  0  0  0  0
    4.8100   -0.8660    0.0000 C   0  0  0  0  0  0  0  0  0  0  0  0
    4.8100    0.8660    0.0000 C   0  0  0  0  0  0  0  0  0  0  0  0
    3.3100    3.0000    0.0000 C   0  0  0  0  0  0  0  0  0  0  0  0
    3.3100   -3.0000    0.0000 C   0  0  0  0  0  0  0  0  0  0  0  0
    2.4440    2.5000    0.0000 C   0  0  0  0  0  0  0  0  0  0  0  0
    2.4440   -2.5000    0.0000 C   0  0  0  0  0  0  0  0  0  0  0  0
    4.1760    2.5000    0.0000 C   0  0  0  0  0  0  0  0  0  0  0  0
    4.1760   -2.5000    0.0000 C   0  0  0  0  0  0  0  0  0  0  0  0
    5.8100   -0.8660    0.0000 C   0  0  0  0  0  0  0  0  0  0  0  0
    5.8100    0.8660    0.0000 C   0  0  0  0  0  0  0  0  0  0  0  0
    6.3100    0.0000    0.0000 C   0  0  0  0  0  0  0  0  0  0  0  0
    2.4440    4.5000    0.0000 C   0  0  0  0  0  0  0  0  0  0  0  0
    4.1760    4.5000    0.0000 C   0  0  0  0  0  0  0  0  0  0  0  0
    2.4440   -4.5000    0.0000 C   0  0  0  0  0  0  0  0  0  0  0  0
    4.1760   -4.5000    0.0000 C   0  0  0  0  0  0  0  0  0  0  0  0
    7.8100   -0.8660    0.0000 C   0  0  0  0  0  0  0  0  0  0  0  0
    1.9070    1.1900    0.0000 H   0  0  0  0  0  0  0  0  0  0  0  0
    1.9070   -1.1900    0.0000 H   0  0  0  0  0  0  0  0  0  0  0  0
    4.7130    1.1900    0.0000 H   0  0  0  0  0  0  0  0  0  0  0  0
    4.7130   -1.1900    0.0000 H   0  0  0  0  0  0  0  0  0  0  0  0
    4.5000   -1.4030    0.0000 H   0  0  0  0  0  0  0  0  0  0  0  0
    4.5000    1.4030    0.0000 H   0  0  0  0  0  0  0  0  0  0  0  0
    2.0000    0.5369    0.0000 H   0  0  0  0  0  0  0  0  0  0  0  0
    1.9070    2.8100    0.0000 H   0  0  0  0  0  0  0  0  0  0  0  0
    1.9070   -2.8100    0.0000 H   0  0  0  0  0  0  0  0  0  0  0  0
    4.7130    2.8100    0.0000 H   0  0  0  0  0  0  0  0  0  0  0  0
    4.7130   -2.8100    0.0000 H   0  0  0  0  0  0  0  0  0  0  0  0
    6.1200   -1.4030    0.0000 H   0  0  0  0  0  0  0  0  0  0  0  0
    6.1200    1.4030    0.0000 H   0  0  0  0  0  0  0  0  0  0  0  0
    7.6200    0.5369    0.0000 H   0  0  0  0  0  0  0  0  0  0  0  0
    2.7540    5.0369    0.0000 H   0  0  0  0  0  0  0  0  0  0  0  0
    1.9070    4.8100    0.0000 H   0  0  0  0  0  0  0  0  0  0  0  0
    2.1340    3.9631    0.0000 H   0  0  0  0  0  0  0  0  0  0  0  0
    4.4860    3.9631    0.0000 H   0  0  0  0  0  0  0  0  0  0  0  0
    4.7130    4.8100    0.0000 H   0  0  0  0  0  0  0  0  0  0  0  0
    3.8660    5.0369    0.0000 H   0  0  0  0  0  0  0  0  0  0  0  0
    2.1340   -3.9631    0.0000 H   0  0  0  0  0  0  0  0  0  0  0  0
    1.9070   -4.8100    0.0000 H   0  0  0  0  0  0  0  0  0  0  0  0
    2.7540   -5.0369    0.0000 H   0  0  0  0  0  0  0  0  0  0  0  0
    3.8660   -5.0369    0.0000 H   0  0  0  0  0  0  0  0  0  0  0  0
    4.7130   -4.8100    0.0000 H   0  0  0  0  0  0  0  0  0  0  0  0
    4.4860   -3.9631    0.0000 H   0  0  0  0  0  0  0  0  0  0  0  0
    7.2731   -1.1760    0.0000 H   0  0  0  0  0  0  0  0  0  0  0  0
    8.1200   -1.4030    0.0000 H   0  0  0  0  0  0  0  0  0  0  0  0
    8.3469   -0.5560    0.0000 H   0  0  0  0  0  0  0  0  0  0  0  0
  1  5  1  0  0  0  0
  1 35  1  0  0  0  0
  2 15  1  0  0  0  0
  2 24  1  0  0  0  0
  2 25  1  0  0  0  0
  3 16  1  0  0  0  0
  3 26  1  0  0  0  0
  3 27  1  0  0  0  0
  4 23  1  0  0  0  0
  4 28  1  0  0  0  0
  4 42  1  0  0  0  0
  5  6  1  0  0  0  0
  5  7  1  0  0  0  0
  5  8  1  0  0  0  0
  6  9  2  0  0  0  0
  6 11  1  0  0  0  0
  7 10  2  0  0  0  0
  7 12  1  0  0  0  0
  8 13  2  0  0  0  0
  8 14  1  0  0  0  0
  9 17  1  0  0  0  0
  9 29  1  0  0  0  0
 10 18  1  0  0  0  0
 10 30  1  0  0  0  0
 11 19  2  0  0  0  0
 11 31  1  0  0  0  0
 12 20  2  0  0  0  0
 12 32  1  0  0  0  0
 13 21  1  0  0  0  0
 13 33  1  0  0  0  0
 14 22  2  0  0  0  0
 14 34  1  0  0  0  0
 15 17  2  0  0  0  0
 15 19  1  0  0  0  0
 16 18  2  0  0  0  0
 16 20  1  0  0  0  0
 17 36  1  0  0  0  0
 18 37  1  0  0  0  0
 19 38  1  0  0  0  0
 20 39  1  0  0  0  0
 21 23  2  0  0  0  0
 21 40  1  0  0  0  0
 22 23  1  0  0  0  0
 22 41  1  0  0  0  0
 24 43  1  0  0  0  0
 24 44  1  0  0  0  0
 24 45  1  0  0  0  0
 25 46  1  0  0  0  0
 25 47  1  0  0  0  0
 25 48  1  0  0  0  0
 26 49  1  0  0  0  0
 26 50  1  0  0  0  0
 26 51  1  0  0  0  0
 27 52  1  0  0  0  0
 27 53  1  0  0  0  0
 27 54  1  0  0  0  0
 28 55  1  0  0  0  0
 28 56  1  0  0  0  0
 28 57  1  0  0  0  0
M  END
> <PUBCHEM_COMPOUND_CID>
68414

> <PUBCHEM_COMPOUND_CANONICALIZED>
1

> <PUBCHEM_CACTVS_COMPLEXITY>
428

> <PUBCHEM_CACTVS_HBOND_ACCEPTOR>
4

> <PUBCHEM_CACTVS_HBOND_DONOR>
2

> <PUBCHEM_CACTVS_ROTATABLE_BOND>
6

> <PUBCHEM_CACTVS_SUBSKEYS>
AAADceB7IAAAAAAAAAAAAAAAAAAAAAAAAAAwYMAAAAAAAAABUAAAHgAQCAAADEyBmAQywIPAAgCAAiRCQACCAAAhAgAIiIAIbIgIJiLAkZGEcAhk0AFI2AeQ0OMOiAAAAAAAAAAQAAAAAAAAAAAAAAAAAA==

> <PUBCHEM_IUPAC_OPENEYE_NAME>
bis[4-(dimethylamino)phenyl]-[4-(methylamino)phenyl]methanol

> <PUBCHEM_IUPAC_CAS_NAME>
bis[4-(dimethylamino)phenyl]-[4-(methylamino)phenyl]methanol

> <PUBCHEM_IUPAC_NAME_MARKUP>
bis[4-(dimethylamino)phenyl]-[4-(methylamino)phenyl]methanol

> <PUBCHEM_IUPAC_NAME>
bis[4-(dimethylamino)phenyl]-[4-(methylamino)phenyl]methanol

> <PUBCHEM_IUPAC_SYSTEMATIC_NAME>
bis[4-(dimethylamino)phenyl]-[4-(methylamino)phenyl]methanol

> <PUBCHEM_IUPAC_TRADITIONAL_NAME>
bis[4-(dimethylamino)phenyl]-[4-(methylamino)phenyl]methanol

> <PUBCHEM_IUPAC_INCHI>
InChI=1S/C24H29N3O/c1-25-21-12-6-18(7-13-21)24(28,19-8-14-22(15-9-19)26(2)3)20-10-16-23(17-11-20)27(4)5/h6-17,25,28H,1-5H3

> <PUBCHEM_IUPAC_INCHIKEY>
MAGJOSJRYKEYAZ-UHFFFAOYSA-N

> <PUBCHEM_XLOGP3_AA>
4.4

> <PUBCHEM_EXACT_MASS>
375.231062557

> <PUBCHEM_MOLECULAR_FORMULA>
C24H29N3O

> <PUBCHEM_MOLECULAR_WEIGHT>
375.5

> <PUBCHEM_SMILES>
CNC1=CC=C(C=C1)C(C2=CC=C(C=C2)N(C)C)(C3=CC=C(C=C3)N(C)C)O

> <PUBCHEM_CONNECTIVITY_SMILES>
CNC1=CC=C(C=C1)C(C2=CC=C(C=C2)N(C)C)(C3=CC=C(C=C3)N(C)C)O

> <PUBCHEM_CACTVS_TPSA>
38.7

> <PUBCHEM_MONOISOTOPIC_WEIGHT>
375.231062557

> <PUBCHEM_TOTAL_CHARGE>
0

> <PUBCHEM_HEAVY_ATOM_COUNT>
28

> <PUBCHEM_ATOM_DEF_STEREO_COUNT>
0

> <PUBCHEM_ATOM_UDEF_STEREO_COUNT>
0

> <PUBCHEM_BOND_DEF_STEREO_COUNT>
0

> <PUBCHEM_BOND_UDEF_STEREO_COUNT>
0

> <PUBCHEM_ISOTOPIC_ATOM_COUNT>
0

> <PUBCHEM_COMPONENT_COUNT>
1

> <PUBCHEM_CACTVS_TAUTO_COUNT>
-1

> <PUBCHEM_COORDINATE_TYPE>
1
5
255

> <PUBCHEM_BONDANNOTATIONS>
10  18  8
11  19  8
12  20  8
13  21  8
14  22  8
15  17  8
15  19  8
16  18  8
16  20  8
21  23  8
22  23  8
6  11  8
6  9  8
7  10  8
7  12  8
8  13  8
8  14  8
9  17  8

$$$$
