68998
  -OEChem-05122610052D

 52 54  0     0  0  0  0  0  0999 V2000
    2.0000    1.7500    0.0000 Cl  0  0  0  0  0  0  0  0  0  0  0  0
    2.7321    0.7500    0.0000 O   0  0  0  0  0  0  0  0  0  0  0  0
    3.7321   -3.2500    0.0000 N   0  0  0  0  0  0  0  0  0  0  0  0
    7.7321    0.7500    0.0000 N   0  0  0  0  0  0  0  0  0  0  0  0
    3.7321    0.7500    0.0000 C   0  0  0  0  0  0  0  0  0  0  0  0
    3.7321   -0.2500    0.0000 C   0  0  0  0  0  0  0  0  0  0  0  0
    4.7321    0.7500    0.0000 C   0  0  0  0  0  0  0  0  0  0  0  0
    3.7321    1.7500    0.0000 C   0  0  0  0  0  0  0  0  0  0  0  0
    2.8660   -0.7500    0.0000 C   0  0  0  0  0  0  0  0  0  0  0  0
    5.2321   -0.1160    0.0000 C   0  0  0  0  0  0  0  0  0  0  0  0
    4.5981   -0.7500    0.0000 C   0  0  0  0  0  0  0  0  0  0  0  0
    5.2321    1.6160    0.0000 C   0  0  0  0  0  0  0  0  0  0  0  0
    2.8660    2.2500    0.0000 C   0  0  0  0  0  0  0  0  0  0  0  0
    4.5981    2.2500    0.0000 C   0  0  0  0  0  0  0  0  0  0  0  0
    3.7321   -2.2500    0.0000 C   0  0  0  0  0  0  0  0  0  0  0  0
    6.7321    0.7500    0.0000 C   0  0  0  0  0  0  0  0  0  0  0  0
    2.8660   -1.7500    0.0000 C   0  0  0  0  0  0  0  0  0  0  0  0
    6.2321   -0.1160    0.0000 C   0  0  0  0  0  0  0  0  0  0  0  0
    4.5981   -1.7500    0.0000 C   0  0  0  0  0  0  0  0  0  0  0  0
    6.2321    1.6160    0.0000 C   0  0  0  0  0  0  0  0  0  0  0  0
    2.8660    3.2500    0.0000 C   0  0  0  0  0  0  0  0  0  0  0  0
    4.5981    3.2500    0.0000 C   0  0  0  0  0  0  0  0  0  0  0  0
    3.7321    3.7500    0.0000 C   0  0  0  0  0  0  0  0  0  0  0  0
    2.8660   -3.7500    0.0000 C   0  0  0  0  0  0  0  0  0  0  0  0
    4.5981   -3.7500    0.0000 C   0  0  0  0  0  0  0  0  0  0  0  0
    8.2321   -0.1160    0.0000 C   0  0  0  0  0  0  0  0  0  0  0  0
    8.2321    1.6160    0.0000 C   0  0  0  0  0  0  0  0  0  0  0  0
    2.3291   -0.4400    0.0000 H   0  0  0  0  0  0  0  0  0  0  0  0
    4.9221   -0.6530    0.0000 H   0  0  0  0  0  0  0  0  0  0  0  0
    5.1350   -0.4400    0.0000 H   0  0  0  0  0  0  0  0  0  0  0  0
    4.9221    2.1530    0.0000 H   0  0  0  0  0  0  0  0  0  0  0  0
    5.1350    1.9400    0.0000 H   0  0  0  0  0  0  0  0  0  0  0  0
    2.4221    1.2869    0.0000 H   0  0  0  0  0  0  0  0  0  0  0  0
    2.3291   -2.0600    0.0000 H   0  0  0  0  0  0  0  0  0  0  0  0
    6.5421   -0.6530    0.0000 H   0  0  0  0  0  0  0  0  0  0  0  0
    5.1350   -2.0600    0.0000 H   0  0  0  0  0  0  0  0  0  0  0  0
    6.5421    2.1530    0.0000 H   0  0  0  0  0  0  0  0  0  0  0  0
    2.3291    3.5600    0.0000 H   0  0  0  0  0  0  0  0  0  0  0  0
    5.1350    3.5600    0.0000 H   0  0  0  0  0  0  0  0  0  0  0  0
    3.7321    4.3700    0.0000 H   0  0  0  0  0  0  0  0  0  0  0  0
    2.5560   -3.2131    0.0000 H   0  0  0  0  0  0  0  0  0  0  0  0
    2.3291   -4.0600    0.0000 H   0  0  0  0  0  0  0  0  0  0  0  0
    3.1760   -4.2869    0.0000 H   0  0  0  0  0  0  0  0  0  0  0  0
    4.2881   -4.2869    0.0000 H   0  0  0  0  0  0  0  0  0  0  0  0
    5.1350   -4.0600    0.0000 H   0  0  0  0  0  0  0  0  0  0  0  0
    4.9081   -3.2131    0.0000 H   0  0  0  0  0  0  0  0  0  0  0  0
    7.6951   -0.4260    0.0000 H   0  0  0  0  0  0  0  0  0  0  0  0
    8.5421   -0.6530    0.0000 H   0  0  0  0  0  0  0  0  0  0  0  0
    8.7690    0.1940    0.0000 H   0  0  0  0  0  0  0  0  0  0  0  0
    8.7690    1.3060    0.0000 H   0  0  0  0  0  0  0  0  0  0  0  0
    8.5421    2.1530    0.0000 H   0  0  0  0  0  0  0  0  0  0  0  0
    7.6951    1.9260    0.0000 H   0  0  0  0  0  0  0  0  0  0  0  0
  1 13  1  0  0  0  0
  2  5  1  0  0  0  0
  2 33  1  0  0  0  0
  3 15  1  0  0  0  0
  3 24  1  0  0  0  0
  3 25  1  0  0  0  0
  4 16  1  0  0  0  0
  4 26  1  0  0  0  0
  4 27  1  0  0  0  0
  5  6  1  0  0  0  0
  5  7  1  0  0  0  0
  5  8  1  0  0  0  0
  6  9  2  0  0  0  0
  6 11  1  0  0  0  0
  7 10  2  0  0  0  0
  7 12  1  0  0  0  0
  8 13  1  0  0  0  0
  8 14  2  0  0  0  0
  9 17  1  0  0  0  0
  9 28  1  0  0  0  0
 10 18  1  0  0  0  0
 10 29  1  0  0  0  0
 11 19  2  0  0  0  0
 11 30  1  0  0  0  0
 12 20  2  0  0  0  0
 12 31  1  0  0  0  0
 13 21  2  0  0  0  0
 14 22  1  0  0  0  0
 14 32  1  0  0  0  0
 15 17  2  0  0  0  0
 15 19  1  0  0  0  0
 16 18  2  0  0  0  0
 16 20  1  0  0  0  0
 17 34  1  0  0  0  0
 18 35  1  0  0  0  0
 19 36  1  0  0  0  0
 20 37  1  0  0  0  0
 21 23  1  0  0  0  0
 21 38  1  0  0  0  0
 22 23  2  0  0  0  0
 22 39  1  0  0  0  0
 23 40  1  0  0  0  0
 24 41  1  0  0  0  0
 24 42  1  0  0  0  0
 24 43  1  0  0  0  0
 25 44  1  0  0  0  0
 25 45  1  0  0  0  0
 25 46  1  0  0  0  0
 26 47  1  0  0  0  0
 26 48  1  0  0  0  0
 26 49  1  0  0  0  0
 27 50  1  0  0  0  0
 27 51  1  0  0  0  0
 27 52  1  0  0  0  0
M  END
> <PUBCHEM_COMPOUND_CID>
68998

> <PUBCHEM_COMPOUND_CANONICALIZED>
1

> <PUBCHEM_CACTVS_COMPLEXITY>
425

> <PUBCHEM_CACTVS_HBOND_ACCEPTOR>
3

> <PUBCHEM_CACTVS_HBOND_DONOR>
1

> <PUBCHEM_CACTVS_ROTATABLE_BOND>
5

> <PUBCHEM_CACTVS_SUBSKEYS>
AAADceB7IAAEAAAAAAAAAAAAAAAAAAAAAAAwYMAAAAAAAAABUAAAHgIACAAADE6BmCQywIMAAgCAAiRCQACCAAAhBwAIiAAIbogIJiLBk5GEcAhkwAFI2AeQ0OMOiAAAAAABAAAQAAAAAAIAAAAAAAAAAA==

> <PUBCHEM_IUPAC_OPENEYE_NAME>
(2-chlorophenyl)-bis[4-(dimethylamino)phenyl]methanol

> <PUBCHEM_IUPAC_CAS_NAME>
(2-chlorophenyl)-bis[4-(dimethylamino)phenyl]methanol

> <PUBCHEM_IUPAC_NAME_MARKUP>
(2-chlorophenyl)-bis[4-(dimethylamino)phenyl]methanol

> <PUBCHEM_IUPAC_NAME>
(2-chlorophenyl)-bis[4-(dimethylamino)phenyl]methanol

> <PUBCHEM_IUPAC_SYSTEMATIC_NAME>
(2-chlorophenyl)-bis[4-(dimethylamino)phenyl]methanol

> <PUBCHEM_IUPAC_TRADITIONAL_NAME>
(2-chlorophenyl)-bis[4-(dimethylamino)phenyl]methanol

> <PUBCHEM_IUPAC_INCHI>
InChI=1S/C23H25ClN2O/c1-25(2)19-13-9-17(10-14-19)23(27,21-7-5-6-8-22(21)24)18-11-15-20(16-12-18)26(3)4/h5-16,27H,1-4H3

> <PUBCHEM_IUPAC_INCHIKEY>
OWOSWOVOVQGAHZ-UHFFFAOYSA-N

> <PUBCHEM_XLOGP3>
4.9

> <PUBCHEM_EXACT_MASS>
380.1655411

> <PUBCHEM_MOLECULAR_FORMULA>
C23H25ClN2O

> <PUBCHEM_MOLECULAR_WEIGHT>
380.9

> <PUBCHEM_SMILES>
CN(C)C1=CC=C(C=C1)C(C2=CC=C(C=C2)N(C)C)(C3=CC=CC=C3Cl)O

> <PUBCHEM_CONNECTIVITY_SMILES>
CN(C)C1=CC=C(C=C1)C(C2=CC=C(C=C2)N(C)C)(C3=CC=CC=C3Cl)O

> <PUBCHEM_CACTVS_TPSA>
26.7

> <PUBCHEM_MONOISOTOPIC_WEIGHT>
380.1655411

> <PUBCHEM_TOTAL_CHARGE>
0

> <PUBCHEM_HEAVY_ATOM_COUNT>
27

> <PUBCHEM_ATOM_DEF_STEREO_COUNT>
0

> <PUBCHEM_ATOM_UDEF_STEREO_COUNT>
0

> <PUBCHEM_BOND_DEF_STEREO_COUNT>
0

> <PUBCHEM_BOND_UDEF_STEREO_COUNT>
0

> <PUBCHEM_ISOTOPIC_ATOM_COUNT>
0

> <PUBCHEM_COMPONENT_COUNT>
1

> <PUBCHEM_CACTVS_TAUTO_COUNT>
-1

> <PUBCHEM_COORDINATE_TYPE>
1
5
255

> <PUBCHEM_BONDANNOTATIONS>
10  18  8
11  19  8
12  20  8
13  21  8
14  22  8
15  17  8
15  19  8
16  18  8
16  20  8
21  23  8
22  23  8
6  11  8
6  9  8
7  10  8
7  12  8
8  13  8
8  14  8
9  17  8

$$$$
