69005
  -OEChem-05122608112D

 24 23  0     0  0  0  0  0  0999 V2000
    3.4030    0.0000    0.0000 Si  0  0  0  0  0  0  0  0  0  0  0  0
    2.5369   -0.5000    0.0000 O   0  0  0  0  0  0  0  0  0  0  0  0
    4.2690    0.5000    0.0000 C   0  0  0  0  0  0  0  0  0  0  0  0
    2.9030    0.8660    0.0000 C   0  0  0  0  0  0  0  0  0  0  0  0
    3.9030   -0.8660    0.0000 C   0  0  0  0  0  0  0  0  0  0  0  0
    5.1350    0.0000    0.0000 C   0  0  0  0  0  0  0  0  0  0  0  0
    3.4030    1.7321    0.0000 C   0  0  0  0  0  0  0  0  0  0  0  0
    3.4030   -1.7321    0.0000 C   0  0  0  0  0  0  0  0  0  0  0  0
    4.6675    0.9749    0.0000 H   0  0  0  0  0  0  0  0  0  0  0  0
    3.8705    0.9749    0.0000 H   0  0  0  0  0  0  0  0  0  0  0  0
    2.4280    1.2646    0.0000 H   0  0  0  0  0  0  0  0  0  0  0  0
    2.4280    0.4675    0.0000 H   0  0  0  0  0  0  0  0  0  0  0  0
    4.3779   -1.2646    0.0000 H   0  0  0  0  0  0  0  0  0  0  0  0
    4.3779   -0.4675    0.0000 H   0  0  0  0  0  0  0  0  0  0  0  0
    4.8250   -0.5369    0.0000 H   0  0  0  0  0  0  0  0  0  0  0  0
    5.6720   -0.3100    0.0000 H   0  0  0  0  0  0  0  0  0  0  0  0
    5.4450    0.5369    0.0000 H   0  0  0  0  0  0  0  0  0  0  0  0
    3.9399    1.4221    0.0000 H   0  0  0  0  0  0  0  0  0  0  0  0
    3.7130    2.2690    0.0000 H   0  0  0  0  0  0  0  0  0  0  0  0
    2.8660    2.0421    0.0000 H   0  0  0  0  0  0  0  0  0  0  0  0
    2.8660   -1.4221    0.0000 H   0  0  0  0  0  0  0  0  0  0  0  0
    3.0930   -2.2690    0.0000 H   0  0  0  0  0  0  0  0  0  0  0  0
    3.9399   -2.0421    0.0000 H   0  0  0  0  0  0  0  0  0  0  0  0
    2.0000   -0.1900    0.0000 H   0  0  0  0  0  0  0  0  0  0  0  0
  1  2  1  0  0  0  0
  1  3  1  0  0  0  0
  1  4  1  0  0  0  0
  1  5  1  0  0  0  0
  2 24  1  0  0  0  0
  3  6  1  0  0  0  0
  3  9  1  0  0  0  0
  3 10  1  0  0  0  0
  4  7  1  0  0  0  0
  4 11  1  0  0  0  0
  4 12  1  0  0  0  0
  5  8  1  0  0  0  0
  5 13  1  0  0  0  0
  5 14  1  0  0  0  0
  6 15  1  0  0  0  0
  6 16  1  0  0  0  0
  6 17  1  0  0  0  0
  7 18  1  0  0  0  0
  7 19  1  0  0  0  0
  7 20  1  0  0  0  0
  8 21  1  0  0  0  0
  8 22  1  0  0  0  0
  8 23  1  0  0  0  0
M  END
> <PUBCHEM_COMPOUND_CID>
69005

> <PUBCHEM_COMPOUND_CANONICALIZED>
1

> <PUBCHEM_CACTVS_COMPLEXITY>
51.3

> <PUBCHEM_CACTVS_HBOND_ACCEPTOR>
1

> <PUBCHEM_CACTVS_HBOND_DONOR>
1

> <PUBCHEM_CACTVS_ROTATABLE_BOND>
3

> <PUBCHEM_CACTVS_SUBSKEYS>
AAADceBgIAgAAAAAAAAAAAAAAAAAAAAAAAAAAAAAAAAAAAAAAAAAGBAACEAAAACAIABCAAAAAAEAAAAAAAAAAAAAAAAAAAAAAAAAAAAAAAAAAAAAAAAAAAAAAAAAAAAAAAAAAAAAAAAAAAAAAAAAAAAAAA==

> <PUBCHEM_IUPAC_OPENEYE_NAME>
triethyl(hydroxy)silane

> <PUBCHEM_IUPAC_CAS_NAME>
triethyl(hydroxy)silane

> <PUBCHEM_IUPAC_NAME_MARKUP>
triethyl(hydroxy)silane

> <PUBCHEM_IUPAC_NAME>
triethyl(hydroxy)silane

> <PUBCHEM_IUPAC_SYSTEMATIC_NAME>
triethyl(oxidanyl)silane

> <PUBCHEM_IUPAC_TRADITIONAL_NAME>
triethyl(hydroxy)silane

> <PUBCHEM_IUPAC_INCHI>
InChI=1S/C6H16OSi/c1-4-8(7,5-2)6-3/h7H,4-6H2,1-3H3

> <PUBCHEM_IUPAC_INCHIKEY>
WVMSIBFANXCZKT-UHFFFAOYSA-N

> <PUBCHEM_EXACT_MASS>
132.097041664

> <PUBCHEM_MOLECULAR_FORMULA>
C6H16OSi

> <PUBCHEM_MOLECULAR_WEIGHT>
132.28

> <PUBCHEM_SMILES>
CC[Si](CC)(CC)O

> <PUBCHEM_CONNECTIVITY_SMILES>
CC[Si](CC)(CC)O

> <PUBCHEM_CACTVS_TPSA>
20.2

> <PUBCHEM_MONOISOTOPIC_WEIGHT>
132.097041664

> <PUBCHEM_TOTAL_CHARGE>
0

> <PUBCHEM_HEAVY_ATOM_COUNT>
8

> <PUBCHEM_ATOM_DEF_STEREO_COUNT>
0

> <PUBCHEM_ATOM_UDEF_STEREO_COUNT>
0

> <PUBCHEM_BOND_DEF_STEREO_COUNT>
0

> <PUBCHEM_BOND_UDEF_STEREO_COUNT>
0

> <PUBCHEM_ISOTOPIC_ATOM_COUNT>
0

> <PUBCHEM_COMPONENT_COUNT>
1

> <PUBCHEM_CACTVS_TAUTO_COUNT>
-1

> <PUBCHEM_COORDINATE_TYPE>
1
5
255

$$$$
