6912870
  -OEChem-05122609572D

 64 63  0     0  0  0  0  0  0999 V2000
    6.0010    3.7500    0.0000 O   0  0  0  0  0  0  0  0  0  0  0  0
    2.5369    2.7500    0.0000 O   0  0  0  0  0  0  0  0  0  0  0  0
    3.4030    1.2500    0.0000 O   0  0  0  0  0  0  0  0  0  0  0  0
    5.1350    2.2500    0.0000 N   0  0  0  0  0  0  0  0  0  0  0  0
    9.4651    2.7500    0.0000 C   0  0  0  0  0  0  0  0  0  0  0  0
   10.3312    2.2500    0.0000 C   0  0  0  0  0  0  0  0  0  0  0  0
    8.5991    2.2500    0.0000 C   0  0  0  0  0  0  0  0  0  0  0  0
   15.5273   -0.7500    0.0000 C   0  0  0  0  0  0  0  0  0  0  0  0
   14.6613   -0.2500    0.0000 C   0  0  0  0  0  0  0  0  0  0  0  0
   11.1972    2.7500    0.0000 C   0  0  0  0  0  0  0  0  0  0  0  0
   15.5273   -1.7500    0.0000 C   0  0  0  0  0  0  0  0  0  0  0  0
   14.6613    0.7500    0.0000 C   0  0  0  0  0  0  0  0  0  0  0  0
    7.7331    2.7500    0.0000 C   0  0  0  0  0  0  0  0  0  0  0  0
   12.0632    2.2500    0.0000 C   0  0  0  0  0  0  0  0  0  0  0  0
   16.3933   -2.2500    0.0000 C   0  0  0  0  0  0  0  0  0  0  0  0
   13.7953    1.2500    0.0000 C   0  0  0  0  0  0  0  0  0  0  0  0
    6.8671    2.2500    0.0000 C   0  0  0  0  0  0  0  0  0  0  0  0
   16.3933   -3.2500    0.0000 C   0  0  0  0  0  0  0  0  0  0  0  0
   12.9292    2.7500    0.0000 C   0  0  0  0  0  0  0  0  0  0  0  0
   13.7953    2.2500    0.0000 C   0  0  0  0  0  0  0  0  0  0  0  0
    6.0010    2.7500    0.0000 C   0  0  0  0  0  0  0  0  0  0  0  0
   17.2594   -3.7500    0.0000 C   0  0  0  0  0  0  0  0  0  0  0  0
    4.2690    2.7500    0.0000 C   0  0  0  0  0  0  0  0  0  0  0  0
    5.1350    1.2500    0.0000 C   0  0  0  0  0  0  0  0  0  0  0  0
    3.4030    2.2500    0.0000 C   0  0  0  0  0  0  0  0  0  0  0  0
    9.8637    3.2250    0.0000 H   0  0  0  0  0  0  0  0  0  0  0  0
    9.0666    3.2250    0.0000 H   0  0  0  0  0  0  0  0  0  0  0  0
    9.9326    1.7751    0.0000 H   0  0  0  0  0  0  0  0  0  0  0  0
   10.7297    1.7751    0.0000 H   0  0  0  0  0  0  0  0  0  0  0  0
    8.2006    1.7751    0.0000 H   0  0  0  0  0  0  0  0  0  0  0  0
    8.9976    1.7751    0.0000 H   0  0  0  0  0  0  0  0  0  0  0  0
   16.1379   -0.8577    0.0000 H   0  0  0  0  0  0  0  0  0  0  0  0
   15.7394   -0.1674    0.0000 H   0  0  0  0  0  0  0  0  0  0  0  0
   14.0507   -0.1423    0.0000 H   0  0  0  0  0  0  0  0  0  0  0  0
   14.4492   -0.8326    0.0000 H   0  0  0  0  0  0  0  0  0  0  0  0
   11.5957    3.2250    0.0000 H   0  0  0  0  0  0  0  0  0  0  0  0
   10.7987    3.2250    0.0000 H   0  0  0  0  0  0  0  0  0  0  0  0
   14.9167   -1.6423    0.0000 H   0  0  0  0  0  0  0  0  0  0  0  0
   15.3153   -2.3326    0.0000 H   0  0  0  0  0  0  0  0  0  0  0  0
   15.2719    0.6423    0.0000 H   0  0  0  0  0  0  0  0  0  0  0  0
   14.8733    1.3326    0.0000 H   0  0  0  0  0  0  0  0  0  0  0  0
    8.1316    3.2250    0.0000 H   0  0  0  0  0  0  0  0  0  0  0  0
    7.3346    3.2250    0.0000 H   0  0  0  0  0  0  0  0  0  0  0  0
   17.0039   -2.3577    0.0000 H   0  0  0  0  0  0  0  0  0  0  0  0
   16.6054   -1.6674    0.0000 H   0  0  0  0  0  0  0  0  0  0  0  0
   11.6647    1.7751    0.0000 H   0  0  0  0  0  0  0  0  0  0  0  0
   12.4617    1.7751    0.0000 H   0  0  0  0  0  0  0  0  0  0  0  0
   13.1847    1.3577    0.0000 H   0  0  0  0  0  0  0  0  0  0  0  0
   13.5832    0.6674    0.0000 H   0  0  0  0  0  0  0  0  0  0  0  0
    6.4685    1.7751    0.0000 H   0  0  0  0  0  0  0  0  0  0  0  0
    7.2656    1.7751    0.0000 H   0  0  0  0  0  0  0  0  0  0  0  0
   15.7828   -3.1423    0.0000 H   0  0  0  0  0  0  0  0  0  0  0  0
   16.1813   -3.8326    0.0000 H   0  0  0  0  0  0  0  0  0  0  0  0
   12.9292    3.3700    0.0000 H   0  0  0  0  0  0  0  0  0  0  0  0
   14.3322    2.5600    0.0000 H   0  0  0  0  0  0  0  0  0  0  0  0
   16.9494   -4.2869    0.0000 H   0  0  0  0  0  0  0  0  0  0  0  0
   17.7963   -4.0600    0.0000 H   0  0  0  0  0  0  0  0  0  0  0  0
   17.5694   -3.2131    0.0000 H   0  0  0  0  0  0  0  0  0  0  0  0
    4.6675    3.2250    0.0000 H   0  0  0  0  0  0  0  0  0  0  0  0
    3.8705    3.2250    0.0000 H   0  0  0  0  0  0  0  0  0  0  0  0
    4.5150    1.2500    0.0000 H   0  0  0  0  0  0  0  0  0  0  0  0
    5.1350    0.6300    0.0000 H   0  0  0  0  0  0  0  0  0  0  0  0
    5.7550    1.2500    0.0000 H   0  0  0  0  0  0  0  0  0  0  0  0
    2.0000    2.4400    0.0000 H   0  0  0  0  0  0  0  0  0  0  0  0
  1 21  2  0  0  0  0
  2 25  1  0  0  0  0
  2 64  1  0  0  0  0
  3 25  2  0  0  0  0
  4 21  1  0  0  0  0
  4 23  1  0  0  0  0
  4 24  1  0  0  0  0
  5  6  1  0  0  0  0
  5  7  1  0  0  0  0
  5 26  1  0  0  0  0
  5 27  1  0  0  0  0
  6 10  1  0  0  0  0
  6 28  1  0  0  0  0
  6 29  1  0  0  0  0
  7 13  1  0  0  0  0
  7 30  1  0  0  0  0
  7 31  1  0  0  0  0
  8  9  1  0  0  0  0
  8 11  1  0  0  0  0
  8 32  1  0  0  0  0
  8 33  1  0  0  0  0
  9 12  1  0  0  0  0
  9 34  1  0  0  0  0
  9 35  1  0  0  0  0
 10 14  1  0  0  0  0
 10 36  1  0  0  0  0
 10 37  1  0  0  0  0
 11 15  1  0  0  0  0
 11 38  1  0  0  0  0
 11 39  1  0  0  0  0
 12 16  1  0  0  0  0
 12 40  1  0  0  0  0
 12 41  1  0  0  0  0
 13 17  1  0  0  0  0
 13 42  1  0  0  0  0
 13 43  1  0  0  0  0
 14 19  1  0  0  0  0
 14 46  1  0  0  0  0
 14 47  1  0  0  0  0
 15 18  1  0  0  0  0
 15 44  1  0  0  0  0
 15 45  1  0  0  0  0
 16 20  1  0  0  0  0
 16 48  1  0  0  0  0
 16 49  1  0  0  0  0
 17 21  1  0  0  0  0
 17 50  1  0  0  0  0
 17 51  1  0  0  0  0
 18 22  1  0  0  0  0
 18 52  1  0  0  0  0
 18 53  1  0  0  0  0
 19 20  2  0  0  0  0
 19 54  1  0  0  0  0
 20 55  1  0  0  0  0
 22 56  1  0  0  0  0
 22 57  1  0  0  0  0
 22 58  1  0  0  0  0
 23 25  1  0  0  0  0
 23 59  1  0  0  0  0
 23 60  1  0  0  0  0
 24 61  1  0  0  0  0
 24 62  1  0  0  0  0
 24 63  1  0  0  0  0
M  END
> <PUBCHEM_COMPOUND_CID>
6912870

> <PUBCHEM_COMPOUND_CANONICALIZED>
1

> <PUBCHEM_CACTVS_COMPLEXITY>
366

> <PUBCHEM_CACTVS_HBOND_ACCEPTOR>
3

> <PUBCHEM_CACTVS_HBOND_DONOR>
1

> <PUBCHEM_CACTVS_ROTATABLE_BOND>
17

> <PUBCHEM_CACTVS_SUBSKEYS>
AAADcfB6MAAAAAAAAAAAAAAAAAAAAAAAAAAAAAAAAAAAAAAAAAAAHgAACAAACADBgAQCCAMAAgCIACHSGAAAAAAgAAAICAGIAAgCABIAgSAEAAAAhgCYAAMYiICAAAAAAAAAAAAAAAAAAAAAAAAAAAAAAA==

> <PUBCHEM_IUPAC_OPENEYE_NAME>
2-[methyl-[(Z)-octadec-9-enoyl]amino]acetic acid

> <PUBCHEM_IUPAC_CAS_NAME>
2-[methyl-[(Z)-1-oxooctadec-9-enyl]amino]acetic acid

> <PUBCHEM_IUPAC_NAME_MARKUP>
2-[methyl-[(<I>Z</I>)-octadec-9-enoyl]amino]acetic acid

> <PUBCHEM_IUPAC_NAME>
2-[methyl-[(Z)-octadec-9-enoyl]amino]acetic acid

> <PUBCHEM_IUPAC_SYSTEMATIC_NAME>
2-[methyl-[(Z)-octadec-9-enoyl]amino]ethanoic acid

> <PUBCHEM_IUPAC_TRADITIONAL_NAME>
2-[methyl-[(Z)-octadec-9-enoyl]amino]acetic acid

> <PUBCHEM_IUPAC_INCHI>
InChI=1S/C21H39NO3/c1-3-4-5-6-7-8-9-10-11-12-13-14-15-16-17-18-20(23)22(2)19-21(24)25/h10-11H,3-9,12-19H2,1-2H3,(H,24,25)/b11-10-

> <PUBCHEM_IUPAC_INCHIKEY>
DIOYAVUHUXAUPX-KHPPLWFESA-N

> <PUBCHEM_XLOGP3_AA>
6.8

> <PUBCHEM_EXACT_MASS>
353.29299411

> <PUBCHEM_MOLECULAR_FORMULA>
C21H39NO3

> <PUBCHEM_MOLECULAR_WEIGHT>
353.5

> <PUBCHEM_SMILES>
CCCCCCCC/C=C\CCCCCCCC(=O)N(C)CC(=O)O

> <PUBCHEM_CONNECTIVITY_SMILES>
CCCCCCCCC=CCCCCCCCC(=O)N(C)CC(=O)O

> <PUBCHEM_CACTVS_TPSA>
57.6

> <PUBCHEM_MONOISOTOPIC_WEIGHT>
353.29299411

> <PUBCHEM_TOTAL_CHARGE>
0

> <PUBCHEM_HEAVY_ATOM_COUNT>
25

> <PUBCHEM_ATOM_DEF_STEREO_COUNT>
0

> <PUBCHEM_ATOM_UDEF_STEREO_COUNT>
0

> <PUBCHEM_BOND_DEF_STEREO_COUNT>
1

> <PUBCHEM_BOND_UDEF_STEREO_COUNT>
0

> <PUBCHEM_ISOTOPIC_ATOM_COUNT>
0

> <PUBCHEM_COMPONENT_COUNT>
1

> <PUBCHEM_CACTVS_TAUTO_COUNT>
-1

> <PUBCHEM_COORDINATE_TYPE>
1
5
255

$$$$
