6913588
  -OEChem-05122610042D

 33 32  0     0  0  0  0  0  0999 V2000
    2.8660    0.0670    0.0000 Si  0  0  0  0  0  0  0  0  0  0  0  0
    6.3301    0.0670    0.0000 Si  0  0  0  0  0  0  0  0  0  0  0  0
    3.7321    0.5670    0.0000 O   0  0  0  0  0  0  0  0  0  0  0  0
    5.4641    0.5670    0.0000 N   0  0  0  0  0  0  0  0  0  0  0  0
    2.0000   -0.4330    0.0000 C   0  0  0  0  0  0  0  0  0  0  0  0
    2.3660    0.9330    0.0000 C   0  0  0  0  0  0  0  0  0  0  0  0
    3.3660   -0.7990    0.0000 C   0  0  0  0  0  0  0  0  0  0  0  0
    7.1962   -0.4330    0.0000 C   0  0  0  0  0  0  0  0  0  0  0  0
    6.8301    0.9330    0.0000 C   0  0  0  0  0  0  0  0  0  0  0  0
    5.8301   -0.7990    0.0000 C   0  0  0  0  0  0  0  0  0  0  0  0
    4.5981    0.0670    0.0000 C   0  0  0  0  0  0  0  0  0  0  0  0
    4.5981   -0.9330    0.0000 C   0  0  0  0  0  0  0  0  0  0  0  0
    1.6900    0.1039    0.0000 H   0  0  0  0  0  0  0  0  0  0  0  0
    1.4631   -0.7430    0.0000 H   0  0  0  0  0  0  0  0  0  0  0  0
    2.3100   -0.9699    0.0000 H   0  0  0  0  0  0  0  0  0  0  0  0
    2.9030    1.2430    0.0000 H   0  0  0  0  0  0  0  0  0  0  0  0
    2.0560    1.4700    0.0000 H   0  0  0  0  0  0  0  0  0  0  0  0
    1.8291    0.6230    0.0000 H   0  0  0  0  0  0  0  0  0  0  0  0
    2.8291   -1.1090    0.0000 H   0  0  0  0  0  0  0  0  0  0  0  0
    3.6760   -1.3360    0.0000 H   0  0  0  0  0  0  0  0  0  0  0  0
    3.9030   -0.4890    0.0000 H   0  0  0  0  0  0  0  0  0  0  0  0
    6.8862   -0.9699    0.0000 H   0  0  0  0  0  0  0  0  0  0  0  0
    7.7331   -0.7430    0.0000 H   0  0  0  0  0  0  0  0  0  0  0  0
    7.5062    0.1039    0.0000 H   0  0  0  0  0  0  0  0  0  0  0  0
    7.3671    0.6230    0.0000 H   0  0  0  0  0  0  0  0  0  0  0  0
    7.1401    1.4700    0.0000 H   0  0  0  0  0  0  0  0  0  0  0  0
    6.2932    1.2430    0.0000 H   0  0  0  0  0  0  0  0  0  0  0  0
    5.2932   -0.4890    0.0000 H   0  0  0  0  0  0  0  0  0  0  0  0
    5.5201   -1.3360    0.0000 H   0  0  0  0  0  0  0  0  0  0  0  0
    6.3671   -1.1090    0.0000 H   0  0  0  0  0  0  0  0  0  0  0  0
    3.9781   -0.9330    0.0000 H   0  0  0  0  0  0  0  0  0  0  0  0
    4.5981   -1.5530    0.0000 H   0  0  0  0  0  0  0  0  0  0  0  0
    5.2181   -0.9330    0.0000 H   0  0  0  0  0  0  0  0  0  0  0  0
  1  3  1  0  0  0  0
  1  5  1  0  0  0  0
  1  6  1  0  0  0  0
  1  7  1  0  0  0  0
  2  4  1  0  0  0  0
  2  8  1  0  0  0  0
  2  9  1  0  0  0  0
  2 10  1  0  0  0  0
  3 11  1  0  0  0  0
  4 11  2  0  0  0  0
  5 13  1  0  0  0  0
  5 14  1  0  0  0  0
  5 15  1  0  0  0  0
  6 16  1  0  0  0  0
  6 17  1  0  0  0  0
  6 18  1  0  0  0  0
  7 19  1  0  0  0  0
  7 20  1  0  0  0  0
  7 21  1  0  0  0  0
  8 22  1  0  0  0  0
  8 23  1  0  0  0  0
  8 24  1  0  0  0  0
  9 25  1  0  0  0  0
  9 26  1  0  0  0  0
  9 27  1  0  0  0  0
 10 28  1  0  0  0  0
 10 29  1  0  0  0  0
 10 30  1  0  0  0  0
 11 12  1  0  0  0  0
 12 31  1  0  0  0  0
 12 32  1  0  0  0  0
 12 33  1  0  0  0  0
M  END
> <PUBCHEM_COMPOUND_CID>
6913588

> <PUBCHEM_COMPOUND_CANONICALIZED>
1

> <PUBCHEM_CACTVS_COMPLEXITY>
176

> <PUBCHEM_CACTVS_HBOND_ACCEPTOR>
2

> <PUBCHEM_CACTVS_HBOND_DONOR>
0

> <PUBCHEM_CACTVS_ROTATABLE_BOND>
3

> <PUBCHEM_CACTVS_SUBSKEYS>
AAADceByIAwAAAAAAAAAAAAAAAAAAAAAAAAAAAAAAAAAAAAAAAAAHhABAEAAAACBgABCAAAAAAEgAAAgAAAAAAAAAAAAAAAQAAAAAAAAAAAAAAAAAAAAAAAAAAAAAAAAAAAAAAAAAAAAAAAAAAAAAAAAAA==

> <PUBCHEM_IUPAC_OPENEYE_NAME>
trimethylsilyl (1E)-N-trimethylsilylethanimidate

> <PUBCHEM_IUPAC_CAS_NAME>
(1E)-N-trimethylsilylethanimidic acid trimethylsilyl ester

> <PUBCHEM_IUPAC_NAME_MARKUP>
trimethylsilyl (1<I>E</I>)-<I>N</I>-trimethylsilylethanimidate

> <PUBCHEM_IUPAC_NAME>
trimethylsilyl (1E)-N-trimethylsilylethanimidate

> <PUBCHEM_IUPAC_SYSTEMATIC_NAME>
trimethylsilyl (1E)-N-trimethylsilylethanimidate

> <PUBCHEM_IUPAC_TRADITIONAL_NAME>
(1E)-N-trimethylsilylacetimidic acid trimethylsilyl ester

> <PUBCHEM_IUPAC_INCHI>
InChI=1S/C8H21NOSi2/c1-8(9-11(2,3)4)10-12(5,6)7/h1-7H3/b9-8+

> <PUBCHEM_IUPAC_INCHIKEY>
SIOVKLKJSOKLIF-CMDGGOBGSA-N

> <PUBCHEM_EXACT_MASS>
203.11616736

> <PUBCHEM_MOLECULAR_FORMULA>
C8H21NOSi2

> <PUBCHEM_MOLECULAR_WEIGHT>
203.43

> <PUBCHEM_SMILES>
C/C(=N\[Si](C)(C)C)/O[Si](C)(C)C

> <PUBCHEM_CONNECTIVITY_SMILES>
CC(=N[Si](C)(C)C)O[Si](C)(C)C

> <PUBCHEM_CACTVS_TPSA>
21.6

> <PUBCHEM_MONOISOTOPIC_WEIGHT>
203.11616736

> <PUBCHEM_TOTAL_CHARGE>
0

> <PUBCHEM_HEAVY_ATOM_COUNT>
12

> <PUBCHEM_ATOM_DEF_STEREO_COUNT>
0

> <PUBCHEM_ATOM_UDEF_STEREO_COUNT>
0

> <PUBCHEM_BOND_DEF_STEREO_COUNT>
1

> <PUBCHEM_BOND_UDEF_STEREO_COUNT>
0

> <PUBCHEM_ISOTOPIC_ATOM_COUNT>
0

> <PUBCHEM_COMPONENT_COUNT>
1

> <PUBCHEM_CACTVS_TAUTO_COUNT>
-1

> <PUBCHEM_COORDINATE_TYPE>
1
5
255

$$$$
