69411
  -OEChem-05122608382D

 27 26  0     0  0  0  0  0  0999 V2000
    6.3301    0.2500    0.0000 O   0  0  0  0  0  0  0  0  0  0  0  0
    8.9282    0.7500    0.0000 O   0  0  0  0  0  0  0  0  0  0  0  0
    3.7321    0.7500    0.0000 O   0  0  0  0  0  0  0  0  0  0  0  0
    9.7942   -0.7500    0.0000 O   0  0  0  0  0  0  0  0  0  0  0  0
    2.8660   -0.7500    0.0000 O   0  0  0  0  0  0  0  0  0  0  0  0
    7.1962    0.7500    0.0000 C   0  0  0  0  0  0  0  0  0  0  0  0
    5.4641    0.7500    0.0000 C   0  0  0  0  0  0  0  0  0  0  0  0
    8.0622    0.2500    0.0000 C   0  0  0  0  0  0  0  0  0  0  0  0
    4.5981    0.2500    0.0000 C   0  0  0  0  0  0  0  0  0  0  0  0
    9.7942    0.2500    0.0000 C   0  0  0  0  0  0  0  0  0  0  0  0
    2.8660    0.2500    0.0000 C   0  0  0  0  0  0  0  0  0  0  0  0
   10.6603    0.7500    0.0000 C   0  0  0  0  0  0  0  0  0  0  0  0
    2.0000    0.7500    0.0000 C   0  0  0  0  0  0  0  0  0  0  0  0
    7.5947    1.2250    0.0000 H   0  0  0  0  0  0  0  0  0  0  0  0
    6.7976    1.2250    0.0000 H   0  0  0  0  0  0  0  0  0  0  0  0
    5.8626    1.2250    0.0000 H   0  0  0  0  0  0  0  0  0  0  0  0
    5.0656    1.2250    0.0000 H   0  0  0  0  0  0  0  0  0  0  0  0
    7.6637   -0.2249    0.0000 H   0  0  0  0  0  0  0  0  0  0  0  0
    8.4607   -0.2249    0.0000 H   0  0  0  0  0  0  0  0  0  0  0  0
    4.1996   -0.2249    0.0000 H   0  0  0  0  0  0  0  0  0  0  0  0
    4.9966   -0.2249    0.0000 H   0  0  0  0  0  0  0  0  0  0  0  0
   10.9703    0.2131    0.0000 H   0  0  0  0  0  0  0  0  0  0  0  0
   11.1972    1.0600    0.0000 H   0  0  0  0  0  0  0  0  0  0  0  0
   10.3503    1.2869    0.0000 H   0  0  0  0  0  0  0  0  0  0  0  0
    2.3100    1.2869    0.0000 H   0  0  0  0  0  0  0  0  0  0  0  0
    1.4631    1.0600    0.0000 H   0  0  0  0  0  0  0  0  0  0  0  0
    1.6900    0.2131    0.0000 H   0  0  0  0  0  0  0  0  0  0  0  0
  1  6  1  0  0  0  0
  1  7  1  0  0  0  0
  2  8  1  0  0  0  0
  2 10  1  0  0  0  0
  3  9  1  0  0  0  0
  3 11  1  0  0  0  0
  4 10  2  0  0  0  0
  5 11  2  0  0  0  0
  6  8  1  0  0  0  0
  6 14  1  0  0  0  0
  6 15  1  0  0  0  0
  7  9  1  0  0  0  0
  7 16  1  0  0  0  0
  7 17  1  0  0  0  0
  8 18  1  0  0  0  0
  8 19  1  0  0  0  0
  9 20  1  0  0  0  0
  9 21  1  0  0  0  0
 10 12  1  0  0  0  0
 11 13  1  0  0  0  0
 12 22  1  0  0  0  0
 12 23  1  0  0  0  0
 12 24  1  0  0  0  0
 13 25  1  0  0  0  0
 13 26  1  0  0  0  0
 13 27  1  0  0  0  0
M  END
> <PUBCHEM_COMPOUND_CID>
69411

> <PUBCHEM_COMPOUND_CANONICALIZED>
1

> <PUBCHEM_CACTVS_COMPLEXITY>
148

> <PUBCHEM_CACTVS_HBOND_ACCEPTOR>
5

> <PUBCHEM_CACTVS_HBOND_DONOR>
0

> <PUBCHEM_CACTVS_ROTATABLE_BOND>
8

> <PUBCHEM_CACTVS_SUBSKEYS>
AAADccBwOAAAAAAAAAAAAAAAAAAAAAAAAAAAAAAAAAAAAAAAAAAAGgAAAAAAAACggAICCAAABAAIAACQCAAAAAAAAAAAAAAAAAABAAAAAAACAAAAAAACAAAAAAAAAAAAAAAAAAAAAAAAAAAAAAAAAAAAAA==

> <PUBCHEM_IUPAC_OPENEYE_NAME>
2-(2-acetoxyethoxy)ethyl acetate

> <PUBCHEM_IUPAC_CAS_NAME>
acetic acid 2-(2-acetyloxyethoxy)ethyl ester

> <PUBCHEM_IUPAC_NAME_MARKUP>
2-(2-acetyloxyethoxy)ethyl acetate

> <PUBCHEM_IUPAC_NAME>
2-(2-acetyloxyethoxy)ethyl acetate

> <PUBCHEM_IUPAC_SYSTEMATIC_NAME>
2-(2-acetyloxyethoxy)ethyl ethanoate

> <PUBCHEM_IUPAC_TRADITIONAL_NAME>
acetic acid 2-(2-acetoxyethoxy)ethyl ester

> <PUBCHEM_IUPAC_INCHI>
InChI=1S/C8H14O5/c1-7(9)12-5-3-11-4-6-13-8(2)10/h3-6H2,1-2H3

> <PUBCHEM_IUPAC_INCHIKEY>
UBPGILLNMDGSDS-UHFFFAOYSA-N

> <PUBCHEM_XLOGP3_AA>
-0.1

> <PUBCHEM_EXACT_MASS>
190.08412354

> <PUBCHEM_MOLECULAR_FORMULA>
C8H14O5

> <PUBCHEM_MOLECULAR_WEIGHT>
190.19

> <PUBCHEM_SMILES>
CC(=O)OCCOCCOC(=O)C

> <PUBCHEM_CONNECTIVITY_SMILES>
CC(=O)OCCOCCOC(=O)C

> <PUBCHEM_CACTVS_TPSA>
61.8

> <PUBCHEM_MONOISOTOPIC_WEIGHT>
190.08412354

> <PUBCHEM_TOTAL_CHARGE>
0

> <PUBCHEM_HEAVY_ATOM_COUNT>
13

> <PUBCHEM_ATOM_DEF_STEREO_COUNT>
0

> <PUBCHEM_ATOM_UDEF_STEREO_COUNT>
0

> <PUBCHEM_BOND_DEF_STEREO_COUNT>
0

> <PUBCHEM_BOND_UDEF_STEREO_COUNT>
0

> <PUBCHEM_ISOTOPIC_ATOM_COUNT>
0

> <PUBCHEM_COMPONENT_COUNT>
1

> <PUBCHEM_CACTVS_TAUTO_COUNT>
-1

> <PUBCHEM_COORDINATE_TYPE>
1
5
255

$$$$
