69537
  -OEChem-05122609052D

 27 26  0     0  0  0  0  0  0999 V2000
    7.3671   -1.1160    0.0000 F   0  0  0  0  0  0  0  0  0  0  0  0
    6.3671    0.6160    0.0000 F   0  0  0  0  0  0  0  0  0  0  0  0
    5.5010    0.1160    0.0000 F   0  0  0  0  0  0  0  0  0  0  0  0
    6.5010   -1.6160    0.0000 F   0  0  0  0  0  0  0  0  0  0  0  0
    7.2331    1.1160    0.0000 F   0  0  0  0  0  0  0  0  0  0  0  0
    8.2331   -0.6160    0.0000 F   0  0  0  0  0  0  0  0  0  0  0  0
    4.6350   -0.3840    0.0000 F   0  0  0  0  0  0  0  0  0  0  0  0
    5.6350   -2.1160    0.0000 F   0  0  0  0  0  0  0  0  0  0  0  0
    9.0991   -0.1160    0.0000 F   0  0  0  0  0  0  0  0  0  0  0  0
    8.0991    1.6160    0.0000 F   0  0  0  0  0  0  0  0  0  0  0  0
   10.3312    1.7500    0.0000 F   0  0  0  0  0  0  0  0  0  0  0  0
    9.9651    0.3840    0.0000 F   0  0  0  0  0  0  0  0  0  0  0  0
    8.9651    2.1160    0.0000 F   0  0  0  0  0  0  0  0  0  0  0  0
    2.5369   -1.7500    0.0000 O   0  0  0  0  0  0  0  0  0  0  0  0
    6.8671   -0.2500    0.0000 C   0  0  0  0  0  0  0  0  0  0  0  0
    6.0010   -0.7500    0.0000 C   0  0  0  0  0  0  0  0  0  0  0  0
    7.7331    0.2500    0.0000 C   0  0  0  0  0  0  0  0  0  0  0  0
    5.1350   -1.2500    0.0000 C   0  0  0  0  0  0  0  0  0  0  0  0
    8.5991    0.7500    0.0000 C   0  0  0  0  0  0  0  0  0  0  0  0
    4.2690   -1.7500    0.0000 C   0  0  0  0  0  0  0  0  0  0  0  0
    9.4651    1.2500    0.0000 C   0  0  0  0  0  0  0  0  0  0  0  0
    3.4030   -1.2500    0.0000 C   0  0  0  0  0  0  0  0  0  0  0  0
    3.8705   -2.2250    0.0000 H   0  0  0  0  0  0  0  0  0  0  0  0
    4.6675   -2.2250    0.0000 H   0  0  0  0  0  0  0  0  0  0  0  0
    3.8015   -0.7751    0.0000 H   0  0  0  0  0  0  0  0  0  0  0  0
    3.0044   -0.7751    0.0000 H   0  0  0  0  0  0  0  0  0  0  0  0
    2.0000   -1.4400    0.0000 H   0  0  0  0  0  0  0  0  0  0  0  0
  1 15  1  0  0  0  0
  2 15  1  0  0  0  0
  3 16  1  0  0  0  0
  4 16  1  0  0  0  0
  5 17  1  0  0  0  0
  6 17  1  0  0  0  0
  7 18  1  0  0  0  0
  8 18  1  0  0  0  0
  9 19  1  0  0  0  0
 10 19  1  0  0  0  0
 11 21  1  0  0  0  0
 12 21  1  0  0  0  0
 13 21  1  0  0  0  0
 14 22  1  0  0  0  0
 14 27  1  0  0  0  0
 15 16  1  0  0  0  0
 15 17  1  0  0  0  0
 16 18  1  0  0  0  0
 17 19  1  0  0  0  0
 18 20  1  0  0  0  0
 19 21  1  0  0  0  0
 20 22  1  0  0  0  0
 20 23  1  0  0  0  0
 20 24  1  0  0  0  0
 22 25  1  0  0  0  0
 22 26  1  0  0  0  0
M  END
> <PUBCHEM_COMPOUND_CID>
69537

> <PUBCHEM_COMPOUND_CANONICALIZED>
1

> <PUBCHEM_CACTVS_COMPLEXITY>
395

> <PUBCHEM_CACTVS_HBOND_ACCEPTOR>
14

> <PUBCHEM_CACTVS_HBOND_DONOR>
1

> <PUBCHEM_CACTVS_ROTATABLE_BOND>
6

> <PUBCHEM_CACTVS_SUBSKEYS>
AAADcYBwIcAAAAAAAAAAAAAAAAAAAAAAAAAAAAAAAAAAAAAAAAAAGwAACAAACACggBIAAAAAAgAAAAAAAAAAAAAAAAAAAAAAAAAAEAIAAAAAQAAEAAAAAAGAwKAAAAAAAAAAAAAAAAAAAAAAAAAAAAAAAA==

> <PUBCHEM_IUPAC_OPENEYE_NAME>
3,3,4,4,5,5,6,6,7,7,8,8,8-tridecafluorooctan-1-ol

> <PUBCHEM_IUPAC_CAS_NAME>
3,3,4,4,5,5,6,6,7,7,8,8,8-tridecafluoro-1-octanol

> <PUBCHEM_IUPAC_NAME_MARKUP>
3,3,4,4,5,5,6,6,7,7,8,8,8-tridecafluorooctan-1-ol

> <PUBCHEM_IUPAC_NAME>
3,3,4,4,5,5,6,6,7,7,8,8,8-tridecafluorooctan-1-ol

> <PUBCHEM_IUPAC_SYSTEMATIC_NAME>
3,3,4,4,5,5,6,6,7,7,8,8,8-tridecakis(fluoranyl)octan-1-ol

> <PUBCHEM_IUPAC_TRADITIONAL_NAME>
3,3,4,4,5,5,6,6,7,7,8,8,8-tridecafluorooctan-1-ol

> <PUBCHEM_IUPAC_INCHI>
InChI=1S/C8H5F13O/c9-3(10,1-2-22)4(11,12)5(13,14)6(15,16)7(17,18)8(19,20)21/h22H,1-2H2

> <PUBCHEM_IUPAC_INCHIKEY>
GRJRKPMIRMSBNK-UHFFFAOYSA-N

> <PUBCHEM_XLOGP3_AA>
4.4

> <PUBCHEM_EXACT_MASS>
364.0132809

> <PUBCHEM_MOLECULAR_FORMULA>
C8H5F13O

> <PUBCHEM_MOLECULAR_WEIGHT>
364.10

> <PUBCHEM_SMILES>
C(CO)C(C(C(C(C(C(F)(F)F)(F)F)(F)F)(F)F)(F)F)(F)F

> <PUBCHEM_CONNECTIVITY_SMILES>
C(CO)C(C(C(C(C(C(F)(F)F)(F)F)(F)F)(F)F)(F)F)(F)F

> <PUBCHEM_CACTVS_TPSA>
20.2

> <PUBCHEM_MONOISOTOPIC_WEIGHT>
364.0132809

> <PUBCHEM_TOTAL_CHARGE>
0

> <PUBCHEM_HEAVY_ATOM_COUNT>
22

> <PUBCHEM_ATOM_DEF_STEREO_COUNT>
0

> <PUBCHEM_ATOM_UDEF_STEREO_COUNT>
0

> <PUBCHEM_BOND_DEF_STEREO_COUNT>
0

> <PUBCHEM_BOND_UDEF_STEREO_COUNT>
0

> <PUBCHEM_ISOTOPIC_ATOM_COUNT>
0

> <PUBCHEM_COMPONENT_COUNT>
1

> <PUBCHEM_CACTVS_TAUTO_COUNT>
-1

> <PUBCHEM_COORDINATE_TYPE>
1
5
255

$$$$
