69825
  -OEChem-05122608212D

 43 42  0     0  0  0  0  0  0999 V2000
    9.4651    0.6550    0.0000 C   0  0  0  0  0  0  0  0  0  0  0  0
    8.5991    0.1550    0.0000 C   0  0  0  0  0  0  0  0  0  0  0  0
   10.3312    0.1550    0.0000 C   0  0  0  0  0  0  0  0  0  0  0  0
    7.7331    0.6550    0.0000 C   0  0  0  0  0  0  0  0  0  0  0  0
   11.1972    0.6550    0.0000 C   0  0  0  0  0  0  0  0  0  0  0  0
    6.8671    0.1550    0.0000 C   0  0  0  0  0  0  0  0  0  0  0  0
   12.0632    0.1550    0.0000 C   0  0  0  0  0  0  0  0  0  0  0  0
    6.0010    0.6550    0.0000 C   0  0  0  0  0  0  0  0  0  0  0  0
   12.9292    0.6550    0.0000 C   0  0  0  0  0  0  0  0  0  0  0  0
    5.1350    0.1550    0.0000 C   0  0  0  0  0  0  0  0  0  0  0  0
   13.7953    0.1550    0.0000 C   0  0  0  0  0  0  0  0  0  0  0  0
    4.2690    0.6550    0.0000 C   0  0  0  0  0  0  0  0  0  0  0  0
   14.6613    0.6550    0.0000 C   0  0  0  0  0  0  0  0  0  0  0  0
    3.4030    0.1550    0.0000 C   0  0  0  0  0  0  0  0  0  0  0  0
    2.5369   -0.3450    0.0000 C   0  0  0  0  0  0  0  0  0  0  0  0
    9.8637    1.1300    0.0000 H   0  0  0  0  0  0  0  0  0  0  0  0
    9.0666    1.1300    0.0000 H   0  0  0  0  0  0  0  0  0  0  0  0
    8.2006   -0.3199    0.0000 H   0  0  0  0  0  0  0  0  0  0  0  0
    8.9976   -0.3199    0.0000 H   0  0  0  0  0  0  0  0  0  0  0  0
    9.9326   -0.3199    0.0000 H   0  0  0  0  0  0  0  0  0  0  0  0
   10.7297   -0.3199    0.0000 H   0  0  0  0  0  0  0  0  0  0  0  0
    8.1316    1.1300    0.0000 H   0  0  0  0  0  0  0  0  0  0  0  0
    7.3346    1.1300    0.0000 H   0  0  0  0  0  0  0  0  0  0  0  0
   11.5957    1.1300    0.0000 H   0  0  0  0  0  0  0  0  0  0  0  0
   10.7987    1.1300    0.0000 H   0  0  0  0  0  0  0  0  0  0  0  0
    6.4685   -0.3199    0.0000 H   0  0  0  0  0  0  0  0  0  0  0  0
    7.2656   -0.3199    0.0000 H   0  0  0  0  0  0  0  0  0  0  0  0
   11.6647   -0.3199    0.0000 H   0  0  0  0  0  0  0  0  0  0  0  0
   12.4617   -0.3199    0.0000 H   0  0  0  0  0  0  0  0  0  0  0  0
    6.3996    1.1300    0.0000 H   0  0  0  0  0  0  0  0  0  0  0  0
    5.6025    1.1300    0.0000 H   0  0  0  0  0  0  0  0  0  0  0  0
   13.3278    1.1300    0.0000 H   0  0  0  0  0  0  0  0  0  0  0  0
   12.5307    1.1300    0.0000 H   0  0  0  0  0  0  0  0  0  0  0  0
    4.7365   -0.3199    0.0000 H   0  0  0  0  0  0  0  0  0  0  0  0
    5.5335   -0.3199    0.0000 H   0  0  0  0  0  0  0  0  0  0  0  0
   13.3967   -0.3199    0.0000 H   0  0  0  0  0  0  0  0  0  0  0  0
   14.1938   -0.3199    0.0000 H   0  0  0  0  0  0  0  0  0  0  0  0
    4.6675    1.1300    0.0000 H   0  0  0  0  0  0  0  0  0  0  0  0
    3.8705    1.1300    0.0000 H   0  0  0  0  0  0  0  0  0  0  0  0
   14.9713    0.1181    0.0000 H   0  0  0  0  0  0  0  0  0  0  0  0
   15.1982    0.9650    0.0000 H   0  0  0  0  0  0  0  0  0  0  0  0
   14.3513    1.1919    0.0000 H   0  0  0  0  0  0  0  0  0  0  0  0
    2.0000   -0.6550    0.0000 H   0  0  0  0  0  0  0  0  0  0  0  0
  1  2  1  0  0  0  0
  1  3  1  0  0  0  0
  1 16  1  0  0  0  0
  1 17  1  0  0  0  0
  2  4  1  0  0  0  0
  2 18  1  0  0  0  0
  2 19  1  0  0  0  0
  3  5  1  0  0  0  0
  3 20  1  0  0  0  0
  3 21  1  0  0  0  0
  4  6  1  0  0  0  0
  4 22  1  0  0  0  0
  4 23  1  0  0  0  0
  5  7  1  0  0  0  0
  5 24  1  0  0  0  0
  5 25  1  0  0  0  0
  6  8  1  0  0  0  0
  6 26  1  0  0  0  0
  6 27  1  0  0  0  0
  7  9  1  0  0  0  0
  7 28  1  0  0  0  0
  7 29  1  0  0  0  0
  8 10  1  0  0  0  0
  8 30  1  0  0  0  0
  8 31  1  0  0  0  0
  9 11  1  0  0  0  0
  9 32  1  0  0  0  0
  9 33  1  0  0  0  0
 10 12  1  0  0  0  0
 10 34  1  0  0  0  0
 10 35  1  0  0  0  0
 11 13  1  0  0  0  0
 11 36  1  0  0  0  0
 11 37  1  0  0  0  0
 12 14  1  0  0  0  0
 12 38  1  0  0  0  0
 12 39  1  0  0  0  0
 13 40  1  0  0  0  0
 13 41  1  0  0  0  0
 13 42  1  0  0  0  0
 14 15  3  0  0  0  0
 15 43  1  0  0  0  0
M  END
> <PUBCHEM_COMPOUND_CID>
69825

> <PUBCHEM_COMPOUND_CANONICALIZED>
1

> <PUBCHEM_CACTVS_COMPLEXITY>
149

> <PUBCHEM_CACTVS_HBOND_ACCEPTOR>
0

> <PUBCHEM_CACTVS_HBOND_DONOR>
0

> <PUBCHEM_CACTVS_ROTATABLE_BOND>
11

> <PUBCHEM_CACTVS_SUBSKEYS>
AAADceBwAAAAAAAAAAAAAAAAAAAAAAAAAAAAAAAAAAAAAAAAAAAAGAAAAAAACACAAAACAAAAAABAGAAAAAgAAAAAAAAAAAAAAAAAAAIAAAAAAAAAAAAAAAEAgIAAAAAAAAAAAAAAAAAAAAAAAAAAAAAAAA==

> <PUBCHEM_IUPAC_OPENEYE_NAME>
pentadec-1-yne

> <PUBCHEM_IUPAC_CAS_NAME>
1-pentadecyne

> <PUBCHEM_IUPAC_NAME_MARKUP>
pentadec-1-yne

> <PUBCHEM_IUPAC_NAME>
pentadec-1-yne

> <PUBCHEM_IUPAC_SYSTEMATIC_NAME>
pentadec-1-yne

> <PUBCHEM_IUPAC_TRADITIONAL_NAME>
pentadec-1-yne

> <PUBCHEM_IUPAC_INCHI>
InChI=1S/C15H28/c1-3-5-7-9-11-13-15-14-12-10-8-6-4-2/h1H,4-15H2,2H3

> <PUBCHEM_IUPAC_INCHIKEY>
DONJGKADZJEXRJ-UHFFFAOYSA-N

> <PUBCHEM_XLOGP3_AA>
7.3

> <PUBCHEM_EXACT_MASS>
208.219100893

> <PUBCHEM_MOLECULAR_FORMULA>
C15H28

> <PUBCHEM_MOLECULAR_WEIGHT>
208.38

> <PUBCHEM_SMILES>
CCCCCCCCCCCCCC#C

> <PUBCHEM_CONNECTIVITY_SMILES>
CCCCCCCCCCCCCC#C

> <PUBCHEM_CACTVS_TPSA>
0

> <PUBCHEM_MONOISOTOPIC_WEIGHT>
208.219100893

> <PUBCHEM_TOTAL_CHARGE>
0

> <PUBCHEM_HEAVY_ATOM_COUNT>
15

> <PUBCHEM_ATOM_DEF_STEREO_COUNT>
0

> <PUBCHEM_ATOM_UDEF_STEREO_COUNT>
0

> <PUBCHEM_BOND_DEF_STEREO_COUNT>
0

> <PUBCHEM_BOND_UDEF_STEREO_COUNT>
0

> <PUBCHEM_ISOTOPIC_ATOM_COUNT>
0

> <PUBCHEM_COMPONENT_COUNT>
1

> <PUBCHEM_CACTVS_TAUTO_COUNT>
-1

> <PUBCHEM_COORDINATE_TYPE>
1
5
255

$$$$
