699486
  -OEChem-05122609582D

 15 16  0     1  0  0  0  0  0999 V2000
    3.7737    1.9068    0.0000 O   0  0  0  0  0  0  0  0  0  0  0  0
    1.8969   -0.5506    0.0000 O   0  0  0  0  0  0  0  0  0  0  0  0
    4.4820   -1.9068    0.0000 O   0  0  0  0  0  0  0  0  0  0  0  0
    3.0370    0.9242    0.0000 C   0  0  2  0  0  0  0  0  0  0  0  0
    3.2959   -0.0417    0.0000 C   0  0  1  0  0  0  0  0  0  0  0  0
    1.6381    0.4154    0.0000 C   0  0  0  0  0  0  0  0  0  0  0  0
    5.0703    0.6130    0.0000 C   0  0  0  0  0  0  0  0  0  0  0  0
    4.5169   -0.9074    0.0000 C   0  0  0  0  0  0  0  0  0  0  0  0
    5.3459   -0.3482    0.0000 C   0  0  0  0  0  0  0  0  0  0  0  0
    2.8170    1.7452    0.0000 H   0  0  0  0  0  0  0  0  0  0  0  0
    3.5159   -0.8628    0.0000 H   0  0  0  0  0  0  0  0  0  0  0  0
    1.0441    0.2376    0.0000 H   0  0  0  0  0  0  0  0  0  0  0  0
    1.4432    1.0039    0.0000 H   0  0  0  0  0  0  0  0  0  0  0  0
    5.4799    1.0785    0.0000 H   0  0  0  0  0  0  0  0  0  0  0  0
    5.9285   -0.5603    0.0000 H   0  0  0  0  0  0  0  0  0  0  0  0
  1  4  1  0  0  0  0
  1  5  1  0  0  0  0
  2  5  1  0  0  0  0
  2  6  1  0  0  0  0
  3  8  2  0  0  0  0
  4  6  1  0  0  0  0
  4  7  1  0  0  0  0
  4 10  1  6  0  0  0
  5  8  1  0  0  0  0
  5 11  1  1  0  0  0
  6 12  1  0  0  0  0
  6 13  1  0  0  0  0
  7  9  2  0  0  0  0
  7 14  1  0  0  0  0
  8  9  1  0  0  0  0
  9 15  1  0  0  0  0
M  END
> <PUBCHEM_COMPOUND_CID>
699486

> <PUBCHEM_COMPOUND_CANONICALIZED>
1

> <PUBCHEM_CACTVS_COMPLEXITY>
173

> <PUBCHEM_CACTVS_HBOND_ACCEPTOR>
3

> <PUBCHEM_CACTVS_HBOND_DONOR>
0

> <PUBCHEM_CACTVS_ROTATABLE_BOND>
0

> <PUBCHEM_CACTVS_SUBSKEYS>
AAADcYBgMAAAAAAAAAAAAAAAAAAAASAAAAAgAAAABAAAAAAAAAAAGgAAAAAACBSwgAMACAAABACIAKBSAAIAAAAgAAAICABAAEgRBAAAIQQiEAAAQAAOIYIAAAAAAAAAAAAAAAAAAAAAAAAAAAAAAAAAAA==

> <PUBCHEM_IUPAC_OPENEYE_NAME>
(1S,5R)-6,8-dioxabicyclo[3.2.1]oct-2-en-4-one

> <PUBCHEM_IUPAC_CAS_NAME>
(1S,5R)-6,8-dioxabicyclo[3.2.1]oct-2-en-4-one

> <PUBCHEM_IUPAC_NAME_MARKUP>
(1<I>S</I>,5<I>R</I>)-6,8-dioxabicyclo[3.2.1]oct-2-en-4-one

> <PUBCHEM_IUPAC_NAME>
(1S,5R)-6,8-dioxabicyclo[3.2.1]oct-2-en-4-one

> <PUBCHEM_IUPAC_SYSTEMATIC_NAME>
(1S,5R)-6,8-dioxabicyclo[3.2.1]oct-2-en-4-one

> <PUBCHEM_IUPAC_TRADITIONAL_NAME>
(1S,5R)-6,8-dioxabicyclo[3.2.1]oct-2-en-4-one

> <PUBCHEM_IUPAC_INCHI>
InChI=1S/C6H6O3/c7-5-2-1-4-3-8-6(5)9-4/h1-2,4,6H,3H2/t4-,6+/m0/s1

> <PUBCHEM_IUPAC_INCHIKEY>
HITOXZPZGPXYHY-UJURSFKZSA-N

> <PUBCHEM_XLOGP3_AA>
-0.2

> <PUBCHEM_EXACT_MASS>
126.031694049

> <PUBCHEM_MOLECULAR_FORMULA>
C6H6O3

> <PUBCHEM_MOLECULAR_WEIGHT>
126.11

> <PUBCHEM_SMILES>
C1[C@@H]2C=CC(=O)[C@H](O1)O2

> <PUBCHEM_CONNECTIVITY_SMILES>
C1C2C=CC(=O)C(O1)O2

> <PUBCHEM_CACTVS_TPSA>
35.5

> <PUBCHEM_MONOISOTOPIC_WEIGHT>
126.031694049

> <PUBCHEM_TOTAL_CHARGE>
0

> <PUBCHEM_HEAVY_ATOM_COUNT>
9

> <PUBCHEM_ATOM_DEF_STEREO_COUNT>
2

> <PUBCHEM_ATOM_UDEF_STEREO_COUNT>
0

> <PUBCHEM_BOND_DEF_STEREO_COUNT>
0

> <PUBCHEM_BOND_UDEF_STEREO_COUNT>
0

> <PUBCHEM_ISOTOPIC_ATOM_COUNT>
0

> <PUBCHEM_COMPONENT_COUNT>
1

> <PUBCHEM_CACTVS_TAUTO_COUNT>
-1

> <PUBCHEM_COORDINATE_TYPE>
1
5
255

> <PUBCHEM_BONDANNOTATIONS>
4  10  6
5  11  5

$$$$
