69984007
  -OEChem-05122608502D

 47 48  0     1  0  0  0  0  0999 V2000
    4.2690   -5.1550    0.0000 Cl  0  0  0  0  0  0  0  0  0  0  0  0
    9.4651    3.8450    0.0000 Cl  0  0  0  0  0  0  0  0  0  0  0  0
    4.2690   -3.1550    0.0000 O   0  0  0  0  0  0  0  0  0  0  0  0
    7.7331    2.8450    0.0000 O   0  0  0  0  0  0  0  0  0  0  0  0
    2.5369   -6.1550    0.0000 O   0  0  0  0  0  0  0  0  0  0  0  0
    9.4651    5.8450    0.0000 O   0  0  0  0  0  0  0  0  0  0  0  0
    4.2690    0.8450    0.0000 C   0  0  0  0  0  0  0  0  0  0  0  0
    4.2690   -0.1550    0.0000 C   0  0  0  0  0  0  0  0  0  0  0  0
    5.1350    1.3450    0.0000 C   0  0  0  0  0  0  0  0  0  0  0  0
    3.4030   -0.6550    0.0000 C   0  0  0  0  0  0  0  0  0  0  0  0
    5.1350    2.3450    0.0000 C   0  0  0  0  0  0  0  0  0  0  0  0
    5.1350   -0.6550    0.0000 C   0  0  0  0  0  0  0  0  0  0  0  0
    6.0010    0.8450    0.0000 C   0  0  0  0  0  0  0  0  0  0  0  0
    4.2690   -2.1550    0.0000 C   0  0  0  0  0  0  0  0  0  0  0  0
    6.8671    2.3450    0.0000 C   0  0  0  0  0  0  0  0  0  0  0  0
    3.4030   -1.6550    0.0000 C   0  0  0  0  0  0  0  0  0  0  0  0
    6.0010    2.8450    0.0000 C   0  0  0  0  0  0  0  0  0  0  0  0
    5.1350   -1.6550    0.0000 C   0  0  0  0  0  0  0  0  0  0  0  0
    6.8671    1.3450    0.0000 C   0  0  0  0  0  0  0  0  0  0  0  0
    3.4030   -3.6550    0.0000 C   0  0  0  0  0  0  0  0  0  0  0  0
    7.7331    3.8450    0.0000 C   0  0  0  0  0  0  0  0  0  0  0  0
    3.4030   -4.6550    0.0000 C   0  0  3  0  0  0  0  0  0  0  0  0
    8.5991    4.3450    0.0000 C   0  0  3  0  0  0  0  0  0  0  0  0
    2.5369   -5.1550    0.0000 C   0  0  0  0  0  0  0  0  0  0  0  0
    8.5991    5.3450    0.0000 C   0  0  0  0  0  0  0  0  0  0  0  0
    4.0569    1.4276    0.0000 H   0  0  0  0  0  0  0  0  0  0  0  0
    3.6584    0.7373    0.0000 H   0  0  0  0  0  0  0  0  0  0  0  0
    2.8660   -0.3450    0.0000 H   0  0  0  0  0  0  0  0  0  0  0  0
    4.5981    2.6550    0.0000 H   0  0  0  0  0  0  0  0  0  0  0  0
    5.6720   -0.3450    0.0000 H   0  0  0  0  0  0  0  0  0  0  0  0
    6.0010    0.2250    0.0000 H   0  0  0  0  0  0  0  0  0  0  0  0
    2.8660   -1.9650    0.0000 H   0  0  0  0  0  0  0  0  0  0  0  0
    6.0010    3.4650    0.0000 H   0  0  0  0  0  0  0  0  0  0  0  0
    5.6720   -1.9650    0.0000 H   0  0  0  0  0  0  0  0  0  0  0  0
    7.4040    1.0350    0.0000 H   0  0  0  0  0  0  0  0  0  0  0  0
    3.1909   -3.0724    0.0000 H   0  0  0  0  0  0  0  0  0  0  0  0
    2.7924   -3.7627    0.0000 H   0  0  0  0  0  0  0  0  0  0  0  0
    7.5210    4.4276    0.0000 H   0  0  0  0  0  0  0  0  0  0  0  0
    7.1225    3.7373    0.0000 H   0  0  0  0  0  0  0  0  0  0  0  0
    3.4030   -5.2750    0.0000 H   0  0  0  0  0  0  0  0  0  0  0  0
    8.5991    3.7250    0.0000 H   0  0  0  0  0  0  0  0  0  0  0  0
    2.3249   -4.5724    0.0000 H   0  0  0  0  0  0  0  0  0  0  0  0
    1.9264   -5.2627    0.0000 H   0  0  0  0  0  0  0  0  0  0  0  0
    8.3871    5.9276    0.0000 H   0  0  0  0  0  0  0  0  0  0  0  0
    7.9885    5.2373    0.0000 H   0  0  0  0  0  0  0  0  0  0  0  0
    2.0000   -6.4650    0.0000 H   0  0  0  0  0  0  0  0  0  0  0  0
    9.4651    6.4650    0.0000 H   0  0  0  0  0  0  0  0  0  0  0  0
  1 22  1  0  0  0  0
  2 23  1  0  0  0  0
  3 14  1  0  0  0  0
  3 20  1  0  0  0  0
  4 15  1  0  0  0  0
  4 21  1  0  0  0  0
  5 24  1  0  0  0  0
  5 46  1  0  0  0  0
  6 25  1  0  0  0  0
  6 47  1  0  0  0  0
  7  8  1  0  0  0  0
  7  9  1  0  0  0  0
  7 26  1  0  0  0  0
  7 27  1  0  0  0  0
  8 10  2  0  0  0  0
  8 12  1  0  0  0  0
  9 11  2  0  0  0  0
  9 13  1  0  0  0  0
 10 16  1  0  0  0  0
 10 28  1  0  0  0  0
 11 17  1  0  0  0  0
 11 29  1  0  0  0  0
 12 18  2  0  0  0  0
 12 30  1  0  0  0  0
 13 19  2  0  0  0  0
 13 31  1  0  0  0  0
 14 16  2  0  0  0  0
 14 18  1  0  0  0  0
 15 17  2  0  0  0  0
 15 19  1  0  0  0  0
 16 32  1  0  0  0  0
 17 33  1  0  0  0  0
 18 34  1  0  0  0  0
 19 35  1  0  0  0  0
 20 22  1  0  0  0  0
 20 36  1  0  0  0  0
 20 37  1  0  0  0  0
 21 23  1  0  0  0  0
 21 38  1  0  0  0  0
 21 39  1  0  0  0  0
 22 24  1  0  0  0  0
 22 40  1  0  0  0  0
 23 25  1  0  0  0  0
 23 41  1  0  0  0  0
 24 42  1  0  0  0  0
 24 43  1  0  0  0  0
 25 44  1  0  0  0  0
 25 45  1  0  0  0  0
M  END
> <PUBCHEM_COMPOUND_CID>
69984007

> <PUBCHEM_COMPOUND_CANONICALIZED>
1

> <PUBCHEM_CACTVS_COMPLEXITY>
310

> <PUBCHEM_CACTVS_HBOND_ACCEPTOR>
4

> <PUBCHEM_CACTVS_HBOND_DONOR>
2

> <PUBCHEM_CACTVS_ROTATABLE_BOND>
10

> <PUBCHEM_CACTVS_SUBSKEYS>
AAADceB4OAAGAAAAAAAAAAAAAAAAAAAAAAAwYAAAAAAAAAABQAAAGgIACAAADAegmEIwBoAABgCAAiBCAAACCAAgIAAIiAAGCYgMNiKEMRqCeCClwBEIqAeAwOAOIAAAAAAAAABAAAAAAAAAAAAAAAAAAA==

> <PUBCHEM_IUPAC_OPENEYE_NAME>
2-chloro-3-[4-[[4-(2-chloro-3-hydroxy-propoxy)phenyl]methyl]phenoxy]propan-1-ol

> <PUBCHEM_IUPAC_CAS_NAME>
2-chloro-3-[4-[[4-(2-chloro-3-hydroxypropoxy)phenyl]methyl]phenoxy]-1-propanol

> <PUBCHEM_IUPAC_NAME_MARKUP>
2-chloro-3-[4-[[4-(2-chloro-3-hydroxypropoxy)phenyl]methyl]phenoxy]propan-1-ol

> <PUBCHEM_IUPAC_NAME>
2-chloro-3-[4-[[4-(2-chloro-3-hydroxypropoxy)phenyl]methyl]phenoxy]propan-1-ol

> <PUBCHEM_IUPAC_SYSTEMATIC_NAME>
2-chloranyl-3-[4-[[4-(2-chloranyl-3-oxidanyl-propoxy)phenyl]methyl]phenoxy]propan-1-ol

> <PUBCHEM_IUPAC_TRADITIONAL_NAME>
2-chloro-3-[4-[4-(2-chloro-3-hydroxy-propoxy)benzyl]phenoxy]propan-1-ol

> <PUBCHEM_IUPAC_INCHI>
InChI=1S/C19H22Cl2O4/c20-16(10-22)12-24-18-5-1-14(2-6-18)9-15-3-7-19(8-4-15)25-13-17(21)11-23/h1-8,16-17,22-23H,9-13H2

> <PUBCHEM_IUPAC_INCHIKEY>
VAFXFEBPCUMOIF-UHFFFAOYSA-N

> <PUBCHEM_XLOGP3_AA>
3.7

> <PUBCHEM_EXACT_MASS>
384.0895146

> <PUBCHEM_MOLECULAR_FORMULA>
C19H22Cl2O4

> <PUBCHEM_MOLECULAR_WEIGHT>
385.3

> <PUBCHEM_SMILES>
C1=CC(=CC=C1CC2=CC=C(C=C2)OCC(CO)Cl)OCC(CO)Cl

> <PUBCHEM_CONNECTIVITY_SMILES>
C1=CC(=CC=C1CC2=CC=C(C=C2)OCC(CO)Cl)OCC(CO)Cl

> <PUBCHEM_CACTVS_TPSA>
58.9

> <PUBCHEM_MONOISOTOPIC_WEIGHT>
384.0895146

> <PUBCHEM_TOTAL_CHARGE>
0

> <PUBCHEM_HEAVY_ATOM_COUNT>
25

> <PUBCHEM_ATOM_DEF_STEREO_COUNT>
0

> <PUBCHEM_ATOM_UDEF_STEREO_COUNT>
2

> <PUBCHEM_BOND_DEF_STEREO_COUNT>
0

> <PUBCHEM_BOND_UDEF_STEREO_COUNT>
0

> <PUBCHEM_ISOTOPIC_ATOM_COUNT>
0

> <PUBCHEM_COMPONENT_COUNT>
1

> <PUBCHEM_CACTVS_TAUTO_COUNT>
-1

> <PUBCHEM_COORDINATE_TYPE>
1
5
255

> <PUBCHEM_BONDANNOTATIONS>
22  1  3
10  16  8
11  17  8
12  18  8
13  19  8
14  16  8
14  18  8
15  17  8
15  19  8
23  2  3
8  10  8
8  12  8
9  11  8
9  13  8

$$$$
