70083
  -OEChem-05122609482D

 39 38  0     0  0  0  0  0  0999 V2000
    8.0991    0.6160    0.0000 F   0  0  0  0  0  0  0  0  0  0  0  0
    9.0991   -1.1160    0.0000 F   0  0  0  0  0  0  0  0  0  0  0  0
    7.2331    0.1160    0.0000 F   0  0  0  0  0  0  0  0  0  0  0  0
    8.2331   -1.6160    0.0000 F   0  0  0  0  0  0  0  0  0  0  0  0
    8.9651    1.1160    0.0000 F   0  0  0  0  0  0  0  0  0  0  0  0
    9.9651   -0.6160    0.0000 F   0  0  0  0  0  0  0  0  0  0  0  0
    6.3671   -0.3840    0.0000 F   0  0  0  0  0  0  0  0  0  0  0  0
    7.3671   -2.1160    0.0000 F   0  0  0  0  0  0  0  0  0  0  0  0
   10.8312   -0.1160    0.0000 F   0  0  0  0  0  0  0  0  0  0  0  0
    9.8312    1.6160    0.0000 F   0  0  0  0  0  0  0  0  0  0  0  0
    5.5010   -0.8840    0.0000 F   0  0  0  0  0  0  0  0  0  0  0  0
    6.5010   -2.6160    0.0000 F   0  0  0  0  0  0  0  0  0  0  0  0
   11.6972    0.3840    0.0000 F   0  0  0  0  0  0  0  0  0  0  0  0
   10.6972    2.1160    0.0000 F   0  0  0  0  0  0  0  0  0  0  0  0
    4.6350   -1.3840    0.0000 F   0  0  0  0  0  0  0  0  0  0  0  0
    5.6350   -3.1160    0.0000 F   0  0  0  0  0  0  0  0  0  0  0  0
   12.5632    0.8840    0.0000 F   0  0  0  0  0  0  0  0  0  0  0  0
   11.5632    2.6160    0.0000 F   0  0  0  0  0  0  0  0  0  0  0  0
   13.7953    2.7500    0.0000 F   0  0  0  0  0  0  0  0  0  0  0  0
   13.4292    1.3840    0.0000 F   0  0  0  0  0  0  0  0  0  0  0  0
   12.4292    3.1160    0.0000 F   0  0  0  0  0  0  0  0  0  0  0  0
    2.5369   -2.7500    0.0000 O   0  0  0  0  0  0  0  0  0  0  0  0
    8.5991   -0.2500    0.0000 C   0  0  0  0  0  0  0  0  0  0  0  0
    7.7331   -0.7500    0.0000 C   0  0  0  0  0  0  0  0  0  0  0  0
    9.4651    0.2500    0.0000 C   0  0  0  0  0  0  0  0  0  0  0  0
    6.8671   -1.2500    0.0000 C   0  0  0  0  0  0  0  0  0  0  0  0
   10.3312    0.7500    0.0000 C   0  0  0  0  0  0  0  0  0  0  0  0
    6.0010   -1.7500    0.0000 C   0  0  0  0  0  0  0  0  0  0  0  0
   11.1972    1.2500    0.0000 C   0  0  0  0  0  0  0  0  0  0  0  0
    5.1350   -2.2500    0.0000 C   0  0  0  0  0  0  0  0  0  0  0  0
   12.0632    1.7500    0.0000 C   0  0  0  0  0  0  0  0  0  0  0  0
    4.2690   -2.7500    0.0000 C   0  0  0  0  0  0  0  0  0  0  0  0
   12.9292    2.2500    0.0000 C   0  0  0  0  0  0  0  0  0  0  0  0
    3.4030   -2.2500    0.0000 C   0  0  0  0  0  0  0  0  0  0  0  0
    3.8705   -3.2250    0.0000 H   0  0  0  0  0  0  0  0  0  0  0  0
    4.6675   -3.2250    0.0000 H   0  0  0  0  0  0  0  0  0  0  0  0
    3.8015   -1.7751    0.0000 H   0  0  0  0  0  0  0  0  0  0  0  0
    3.0044   -1.7751    0.0000 H   0  0  0  0  0  0  0  0  0  0  0  0
    2.0000   -2.4400    0.0000 H   0  0  0  0  0  0  0  0  0  0  0  0
  1 23  1  0  0  0  0
  2 23  1  0  0  0  0
  3 24  1  0  0  0  0
  4 24  1  0  0  0  0
  5 25  1  0  0  0  0
  6 25  1  0  0  0  0
  7 26  1  0  0  0  0
  8 26  1  0  0  0  0
  9 27  1  0  0  0  0
 10 27  1  0  0  0  0
 11 28  1  0  0  0  0
 12 28  1  0  0  0  0
 13 29  1  0  0  0  0
 14 29  1  0  0  0  0
 15 30  1  0  0  0  0
 16 30  1  0  0  0  0
 17 31  1  0  0  0  0
 18 31  1  0  0  0  0
 19 33  1  0  0  0  0
 20 33  1  0  0  0  0
 21 33  1  0  0  0  0
 22 34  1  0  0  0  0
 22 39  1  0  0  0  0
 23 24  1  0  0  0  0
 23 25  1  0  0  0  0
 24 26  1  0  0  0  0
 25 27  1  0  0  0  0
 26 28  1  0  0  0  0
 27 29  1  0  0  0  0
 28 30  1  0  0  0  0
 29 31  1  0  0  0  0
 30 32  1  0  0  0  0
 31 33  1  0  0  0  0
 32 34  1  0  0  0  0
 32 35  1  0  0  0  0
 32 36  1  0  0  0  0
 34 37  1  0  0  0  0
 34 38  1  0  0  0  0
M  END
> <PUBCHEM_COMPOUND_CID>
70083

> <PUBCHEM_COMPOUND_CANONICALIZED>
1

> <PUBCHEM_CACTVS_COMPLEXITY>
731

> <PUBCHEM_CACTVS_HBOND_ACCEPTOR>
22

> <PUBCHEM_CACTVS_HBOND_DONOR>
1

> <PUBCHEM_CACTVS_ROTATABLE_BOND>
10

> <PUBCHEM_CACTVS_SUBSKEYS>
AAADcYBwIcAAAAAAAAAAAAAAAAAAAAAAAAAAAAAAAAAAAAAAAAAAGwAACAAACACggBIAAAAAAgAAAAAAAAAAAAAAAAAAAAAAAAAAEAIAAAAAQAAEAAAAAAGAwKAAAAAAAAAAAAAAAAAAAAAAAAAAAAAAAA==

> <PUBCHEM_IUPAC_OPENEYE_NAME>
3,3,4,4,5,5,6,6,7,7,8,8,9,9,10,10,11,11,12,12,12-henicosafluorododecan-1-ol

> <PUBCHEM_IUPAC_CAS_NAME>
3,3,4,4,5,5,6,6,7,7,8,8,9,9,10,10,11,11,12,12,12-heneicosafluoro-1-dodecanol

> <PUBCHEM_IUPAC_NAME_MARKUP>
3,3,4,4,5,5,6,6,7,7,8,8,9,9,10,10,11,11,12,12,12-henicosafluorododecan-1-ol

> <PUBCHEM_IUPAC_NAME>
3,3,4,4,5,5,6,6,7,7,8,8,9,9,10,10,11,11,12,12,12-henicosafluorododecan-1-ol

> <PUBCHEM_IUPAC_SYSTEMATIC_NAME>
3,3,4,4,5,5,6,6,7,7,8,8,9,9,10,10,11,11,12,12,12-henicosakis(fluoranyl)dodecan-1-ol

> <PUBCHEM_IUPAC_TRADITIONAL_NAME>
3,3,4,4,5,5,6,6,7,7,8,8,9,9,10,10,11,11,12,12,12-heneicosafluorododecan-1-ol

> <PUBCHEM_IUPAC_INCHI>
InChI=1S/C12H5F21O/c13-3(14,1-2-34)4(15,16)5(17,18)6(19,20)7(21,22)8(23,24)9(25,26)10(27,28)11(29,30)12(31,32)33/h34H,1-2H2

> <PUBCHEM_IUPAC_INCHIKEY>
FLXYIZWPNQYPIT-UHFFFAOYSA-N

> <PUBCHEM_XLOGP3_AA>
7.1

> <PUBCHEM_EXACT_MASS>
564.0005062

> <PUBCHEM_MOLECULAR_FORMULA>
C12H5F21O

> <PUBCHEM_MOLECULAR_WEIGHT>
564.13

> <PUBCHEM_SMILES>
C(CO)C(C(C(C(C(C(C(C(C(C(F)(F)F)(F)F)(F)F)(F)F)(F)F)(F)F)(F)F)(F)F)(F)F)(F)F

> <PUBCHEM_CONNECTIVITY_SMILES>
C(CO)C(C(C(C(C(C(C(C(C(C(F)(F)F)(F)F)(F)F)(F)F)(F)F)(F)F)(F)F)(F)F)(F)F)(F)F

> <PUBCHEM_CACTVS_TPSA>
20.2

> <PUBCHEM_MONOISOTOPIC_WEIGHT>
564.0005062

> <PUBCHEM_TOTAL_CHARGE>
0

> <PUBCHEM_HEAVY_ATOM_COUNT>
34

> <PUBCHEM_ATOM_DEF_STEREO_COUNT>
0

> <PUBCHEM_ATOM_UDEF_STEREO_COUNT>
0

> <PUBCHEM_BOND_DEF_STEREO_COUNT>
0

> <PUBCHEM_BOND_UDEF_STEREO_COUNT>
0

> <PUBCHEM_ISOTOPIC_ATOM_COUNT>
0

> <PUBCHEM_COMPONENT_COUNT>
1

> <PUBCHEM_CACTVS_TAUTO_COUNT>
-1

> <PUBCHEM_COORDINATE_TYPE>
1
5
255

$$$$
