70258
  -OEChem-05122609152D

 11 11  0     0  0  0  0  0  0999 V2000
    3.0878    1.6739    0.0000 O   0  0  0  0  0  0  0  0  0  0  0  0
    2.0000   -1.6739    0.0000 O   0  0  0  0  0  0  0  0  0  0  0  0
    2.2788    0.0861    0.0000 C   0  0  0  0  0  0  0  0  0  0  0  0
    3.0878    0.6739    0.0000 C   0  0  0  0  0  0  0  0  0  0  0  0
    2.5878   -0.8649    0.0000 C   0  0  0  0  0  0  0  0  0  0  0  0
    3.8968    0.0861    0.0000 C   0  0  0  0  0  0  0  0  0  0  0  0
    3.5878   -0.8649    0.0000 C   0  0  0  0  0  0  0  0  0  0  0  0
    1.9688    0.6231    0.0000 H   0  0  0  0  0  0  0  0  0  0  0  0
    1.7124   -0.1660    0.0000 H   0  0  0  0  0  0  0  0  0  0  0  0
    4.4865    0.2777    0.0000 H   0  0  0  0  0  0  0  0  0  0  0  0
    3.9522   -1.3665    0.0000 H   0  0  0  0  0  0  0  0  0  0  0  0
  1  4  2  0  0  0  0
  2  5  2  0  0  0  0
  3  4  1  0  0  0  0
  3  5  1  0  0  0  0
  3  8  1  0  0  0  0
  3  9  1  0  0  0  0
  4  6  1  0  0  0  0
  5  7  1  0  0  0  0
  6  7  2  0  0  0  0
  6 10  1  0  0  0  0
  7 11  1  0  0  0  0
M  END
> <PUBCHEM_COMPOUND_CID>
70258

> <PUBCHEM_COMPOUND_CANONICALIZED>
1

> <PUBCHEM_CACTVS_COMPLEXITY>
128

> <PUBCHEM_CACTVS_HBOND_ACCEPTOR>
2

> <PUBCHEM_CACTVS_HBOND_DONOR>
0

> <PUBCHEM_CACTVS_ROTATABLE_BOND>
0

> <PUBCHEM_CACTVS_SUBSKEYS>
AAADcYBgMAAAAAAAAAAAAAAAAAAAAQAAAAAAAAAAAAAAAAAAAAAAGgAAAAAACASAgAAAAAAAAACIAKBSAAAAAAAgAAAICAEAAEgAABIIAAAAAAAAgAAIAYIAAAAAAAAAAAAAAAAAAAAAAAAAAAAAAAAAAA==

> <PUBCHEM_IUPAC_OPENEYE_NAME>
cyclopent-4-ene-1,3-dione

> <PUBCHEM_IUPAC_CAS_NAME>
cyclopent-4-ene-1,3-dione

> <PUBCHEM_IUPAC_NAME_MARKUP>
cyclopent-4-ene-1,3-dione

> <PUBCHEM_IUPAC_NAME>
cyclopent-4-ene-1,3-dione

> <PUBCHEM_IUPAC_SYSTEMATIC_NAME>
cyclopent-4-ene-1,3-dione

> <PUBCHEM_IUPAC_TRADITIONAL_NAME>
cyclopent-4-ene-1,3-quinone

> <PUBCHEM_IUPAC_INCHI>
InChI=1S/C5H4O2/c6-4-1-2-5(7)3-4/h1-2H,3H2

> <PUBCHEM_IUPAC_INCHIKEY>
MCFZBCCYOPSZLG-UHFFFAOYSA-N

> <PUBCHEM_XLOGP3_AA>
0

> <PUBCHEM_EXACT_MASS>
96.021129366

> <PUBCHEM_MOLECULAR_FORMULA>
C5H4O2

> <PUBCHEM_MOLECULAR_WEIGHT>
96.08

> <PUBCHEM_SMILES>
C1C(=O)C=CC1=O

> <PUBCHEM_CONNECTIVITY_SMILES>
C1C(=O)C=CC1=O

> <PUBCHEM_CACTVS_TPSA>
34.1

> <PUBCHEM_MONOISOTOPIC_WEIGHT>
96.021129366

> <PUBCHEM_TOTAL_CHARGE>
0

> <PUBCHEM_HEAVY_ATOM_COUNT>
7

> <PUBCHEM_ATOM_DEF_STEREO_COUNT>
0

> <PUBCHEM_ATOM_UDEF_STEREO_COUNT>
0

> <PUBCHEM_BOND_DEF_STEREO_COUNT>
0

> <PUBCHEM_BOND_UDEF_STEREO_COUNT>
0

> <PUBCHEM_ISOTOPIC_ATOM_COUNT>
0

> <PUBCHEM_COMPONENT_COUNT>
1

> <PUBCHEM_CACTVS_TAUTO_COUNT>
-1

> <PUBCHEM_COORDINATE_TYPE>
1
5
255

$$$$
