70289
  -OEChem-05122608532D

 25 25  0     0  0  0  0  0  0999 V2000
    3.0000    1.7500    0.0000 O   0  0  0  0  0  0  0  0  0  0  0  0
    3.0000    0.7500    0.0000 C   0  0  0  0  0  0  0  0  0  0  0  0
    3.0000   -0.2500    0.0000 C   0  0  0  0  0  0  0  0  0  0  0  0
    4.0000    0.7500    0.0000 C   0  0  0  0  0  0  0  0  0  0  0  0
    2.0000    0.7500    0.0000 C   0  0  0  0  0  0  0  0  0  0  0  0
    2.1340   -0.7500    0.0000 C   0  0  0  0  0  0  0  0  0  0  0  0
    3.8660   -0.7500    0.0000 C   0  0  0  0  0  0  0  0  0  0  0  0
    2.1340   -1.7500    0.0000 C   0  0  0  0  0  0  0  0  0  0  0  0
    3.8660   -1.7500    0.0000 C   0  0  0  0  0  0  0  0  0  0  0  0
    3.8660    2.2500    0.0000 C   0  0  0  0  0  0  0  0  0  0  0  0
    3.0000   -2.2500    0.0000 C   0  0  0  0  0  0  0  0  0  0  0  0
    4.0000    0.1300    0.0000 H   0  0  0  0  0  0  0  0  0  0  0  0
    4.6200    0.7500    0.0000 H   0  0  0  0  0  0  0  0  0  0  0  0
    4.0000    1.3700    0.0000 H   0  0  0  0  0  0  0  0  0  0  0  0
    2.0000    1.3700    0.0000 H   0  0  0  0  0  0  0  0  0  0  0  0
    1.3800    0.7500    0.0000 H   0  0  0  0  0  0  0  0  0  0  0  0
    2.0000    0.1300    0.0000 H   0  0  0  0  0  0  0  0  0  0  0  0
    1.5970   -0.4400    0.0000 H   0  0  0  0  0  0  0  0  0  0  0  0
    4.4030   -0.4400    0.0000 H   0  0  0  0  0  0  0  0  0  0  0  0
    1.5970   -2.0600    0.0000 H   0  0  0  0  0  0  0  0  0  0  0  0
    4.4030   -2.0600    0.0000 H   0  0  0  0  0  0  0  0  0  0  0  0
    4.1760    1.7131    0.0000 H   0  0  0  0  0  0  0  0  0  0  0  0
    4.4030    2.5600    0.0000 H   0  0  0  0  0  0  0  0  0  0  0  0
    3.5560    2.7869    0.0000 H   0  0  0  0  0  0  0  0  0  0  0  0
    3.0000   -2.8700    0.0000 H   0  0  0  0  0  0  0  0  0  0  0  0
  1  2  1  0  0  0  0
  1 10  1  0  0  0  0
  2  3  1  0  0  0  0
  2  4  1  0  0  0  0
  2  5  1  0  0  0  0
  3  6  2  0  0  0  0
  3  7  1  0  0  0  0
  4 12  1  0  0  0  0
  4 13  1  0  0  0  0
  4 14  1  0  0  0  0
  5 15  1  0  0  0  0
  5 16  1  0  0  0  0
  5 17  1  0  0  0  0
  6  8  1  0  0  0  0
  6 18  1  0  0  0  0
  7  9  2  0  0  0  0
  7 19  1  0  0  0  0
  8 11  2  0  0  0  0
  8 20  1  0  0  0  0
  9 11  1  0  0  0  0
  9 21  1  0  0  0  0
 10 22  1  0  0  0  0
 10 23  1  0  0  0  0
 10 24  1  0  0  0  0
 11 25  1  0  0  0  0
M  END
> <PUBCHEM_COMPOUND_CID>
70289

> <PUBCHEM_COMPOUND_CANONICALIZED>
1

> <PUBCHEM_CACTVS_COMPLEXITY>
112

> <PUBCHEM_CACTVS_HBOND_ACCEPTOR>
1

> <PUBCHEM_CACTVS_HBOND_DONOR>
0

> <PUBCHEM_CACTVS_ROTATABLE_BOND>
2

> <PUBCHEM_CACTVS_SUBSKEYS>
AAADccBwIAAAAAAAAAAAAAAAAAAAAAAAAAAwAAAAAAAAAAABAAAAGgAAAAAADESAmAIyAIAABACAAiBCAAACAAAgAAAIiAAACIgIJiKAMRiAMAAkwAEIqAeAwOAOgAAAAAAAAAAAAAAAAAAAAAAAAAAAAA==

> <PUBCHEM_IUPAC_OPENEYE_NAME>
(1-methoxy-1-methyl-ethyl)benzene

> <PUBCHEM_IUPAC_CAS_NAME>
2-methoxypropan-2-ylbenzene

> <PUBCHEM_IUPAC_NAME_MARKUP>
2-methoxypropan-2-ylbenzene

> <PUBCHEM_IUPAC_NAME>
2-methoxypropan-2-ylbenzene

> <PUBCHEM_IUPAC_SYSTEMATIC_NAME>
2-methoxypropan-2-ylbenzene

> <PUBCHEM_IUPAC_TRADITIONAL_NAME>
(1-methoxy-1-methyl-ethyl)benzene

> <PUBCHEM_IUPAC_INCHI>
InChI=1S/C10H14O/c1-10(2,11-3)9-7-5-4-6-8-9/h4-8H,1-3H3

> <PUBCHEM_IUPAC_INCHIKEY>
MRFQFQYRTNGOCZ-UHFFFAOYSA-N

> <PUBCHEM_XLOGP3>
3.1

> <PUBCHEM_EXACT_MASS>
150.104465066

> <PUBCHEM_MOLECULAR_FORMULA>
C10H14O

> <PUBCHEM_MOLECULAR_WEIGHT>
150.22

> <PUBCHEM_SMILES>
CC(C)(C1=CC=CC=C1)OC

> <PUBCHEM_CONNECTIVITY_SMILES>
CC(C)(C1=CC=CC=C1)OC

> <PUBCHEM_CACTVS_TPSA>
9.2

> <PUBCHEM_MONOISOTOPIC_WEIGHT>
150.104465066

> <PUBCHEM_TOTAL_CHARGE>
0

> <PUBCHEM_HEAVY_ATOM_COUNT>
11

> <PUBCHEM_ATOM_DEF_STEREO_COUNT>
0

> <PUBCHEM_ATOM_UDEF_STEREO_COUNT>
0

> <PUBCHEM_BOND_DEF_STEREO_COUNT>
0

> <PUBCHEM_BOND_UDEF_STEREO_COUNT>
0

> <PUBCHEM_ISOTOPIC_ATOM_COUNT>
0

> <PUBCHEM_COMPONENT_COUNT>
1

> <PUBCHEM_CACTVS_TAUTO_COUNT>
-1

> <PUBCHEM_COORDINATE_TYPE>
1
5
255

> <PUBCHEM_BONDANNOTATIONS>
3  6  8
3  7  8
6  8  8
7  9  8
8  11  8
9  11  8

$$$$
