70300
  -OEChem-05122608282D

 19 19  0     0  0  0  0  0  0999 V2000
    2.0000    2.0950    0.0000 O   0  0  0  0  0  0  0  0  0  0  0  0
    2.8660    0.5950    0.0000 N   0  0  0  0  0  0  0  0  0  0  0  0
    4.5981    0.5950    0.0000 N   0  0  0  0  0  0  0  0  0  0  0  0
    3.7321   -0.9050    0.0000 N   0  0  0  0  0  0  0  0  0  0  0  0
    5.4641   -0.9050    0.0000 N   0  0  0  0  0  0  0  0  0  0  0  0
    6.3301    0.5950    0.0000 N   0  0  0  0  0  0  0  0  0  0  0  0
    4.5981   -2.4050    0.0000 N   0  0  0  0  0  0  0  0  0  0  0  0
    3.7321    0.0950    0.0000 C   0  0  0  0  0  0  0  0  0  0  0  0
    2.8660    1.5950    0.0000 C   0  0  0  0  0  0  0  0  0  0  0  0
    5.4641    0.0950    0.0000 C   0  0  0  0  0  0  0  0  0  0  0  0
    4.5981   -1.4050    0.0000 C   0  0  0  0  0  0  0  0  0  0  0  0
    2.3291    0.2850    0.0000 H   0  0  0  0  0  0  0  0  0  0  0  0
    3.4766    1.4873    0.0000 H   0  0  0  0  0  0  0  0  0  0  0  0
    3.0781    2.1776    0.0000 H   0  0  0  0  0  0  0  0  0  0  0  0
    6.8671    0.2850    0.0000 H   0  0  0  0  0  0  0  0  0  0  0  0
    6.3301    1.2150    0.0000 H   0  0  0  0  0  0  0  0  0  0  0  0
    5.1350   -2.7150    0.0000 H   0  0  0  0  0  0  0  0  0  0  0  0
    4.0611   -2.7150    0.0000 H   0  0  0  0  0  0  0  0  0  0  0  0
    2.0000    2.7150    0.0000 H   0  0  0  0  0  0  0  0  0  0  0  0
  1  9  1  0  0  0  0
  1 19  1  0  0  0  0
  2  8  1  0  0  0  0
  2  9  1  0  0  0  0
  2 12  1  0  0  0  0
  3  8  2  0  0  0  0
  3 10  1  0  0  0  0
  4  8  1  0  0  0  0
  4 11  2  0  0  0  0
  5 10  2  0  0  0  0
  5 11  1  0  0  0  0
  6 10  1  0  0  0  0
  6 15  1  0  0  0  0
  6 16  1  0  0  0  0
  7 11  1  0  0  0  0
  7 17  1  0  0  0  0
  7 18  1  0  0  0  0
  9 13  1  0  0  0  0
  9 14  1  0  0  0  0
M  END
> <PUBCHEM_COMPOUND_CID>
70300

> <PUBCHEM_COMPOUND_CANONICALIZED>
1

> <PUBCHEM_CACTVS_COMPLEXITY>
111

> <PUBCHEM_CACTVS_HBOND_ACCEPTOR>
7

> <PUBCHEM_CACTVS_HBOND_DONOR>
4

> <PUBCHEM_CACTVS_ROTATABLE_BOND>
2

> <PUBCHEM_CACTVS_SUBSKEYS>
AAADccBjoAAAAAAAAAAAAAAAAAAAAAAAAAAsAAAAAAAAAAABgAAAFgAQCAAAAAAAAAYBEAbIEgAgAAAAJAAAAAkAAIABAIAIAAGAGAAAAAAAAAAIAAAAAAAAAAAAAAAAAAAAAAAAAAAAAAAAAAAAAAAAAA==

> <PUBCHEM_IUPAC_OPENEYE_NAME>
[(4,6-diamino-1,3,5-triazin-2-yl)amino]methanol

> <PUBCHEM_IUPAC_CAS_NAME>
[(4,6-diamino-1,3,5-triazin-2-yl)amino]methanol

> <PUBCHEM_IUPAC_NAME_MARKUP>
[(4,6-diamino-1,3,5-triazin-2-yl)amino]methanol

> <PUBCHEM_IUPAC_NAME>
[(4,6-diamino-1,3,5-triazin-2-yl)amino]methanol

> <PUBCHEM_IUPAC_SYSTEMATIC_NAME>
[[4,6-bis(azanyl)-1,3,5-triazin-2-yl]amino]methanol

> <PUBCHEM_IUPAC_TRADITIONAL_NAME>
[(4,6-diamino-s-triazin-2-yl)amino]methanol

> <PUBCHEM_IUPAC_INCHI>
InChI=1S/C4H8N6O/c5-2-8-3(6)10-4(9-2)7-1-11/h11H,1H2,(H5,5,6,7,8,9,10)

> <PUBCHEM_IUPAC_INCHIKEY>
MBHRHUJRKGNOKX-UHFFFAOYSA-N

> <PUBCHEM_XLOGP3_AA>
-1

> <PUBCHEM_EXACT_MASS>
156.07595890

> <PUBCHEM_MOLECULAR_FORMULA>
C4H8N6O

> <PUBCHEM_MOLECULAR_WEIGHT>
156.15

> <PUBCHEM_SMILES>
C(NC1=NC(=NC(=N1)N)N)O

> <PUBCHEM_CONNECTIVITY_SMILES>
C(NC1=NC(=NC(=N1)N)N)O

> <PUBCHEM_CACTVS_TPSA>
123

> <PUBCHEM_MONOISOTOPIC_WEIGHT>
156.07595890

> <PUBCHEM_TOTAL_CHARGE>
0

> <PUBCHEM_HEAVY_ATOM_COUNT>
11

> <PUBCHEM_ATOM_DEF_STEREO_COUNT>
0

> <PUBCHEM_ATOM_UDEF_STEREO_COUNT>
0

> <PUBCHEM_BOND_DEF_STEREO_COUNT>
0

> <PUBCHEM_BOND_UDEF_STEREO_COUNT>
0

> <PUBCHEM_ISOTOPIC_ATOM_COUNT>
0

> <PUBCHEM_COMPONENT_COUNT>
1

> <PUBCHEM_CACTVS_TAUTO_COUNT>
-1

> <PUBCHEM_COORDINATE_TYPE>
1
5
255

> <PUBCHEM_BONDANNOTATIONS>
3  10  8
3  8  8
4  11  8
4  8  8
5  10  8
5  11  8

$$$$
