70355
  -OEChem-05122609452D

 31 32  0     0  0  0  0  0  0999 V2000
    2.6200    1.0000    0.0000 O   0  0  0  0  0  0  0  0  0  0  0  0
    3.1200    1.8660    0.0000 O   0  0  0  0  0  0  0  0  0  0  0  0
    3.1200    0.1340    0.0000 C   0  0  0  0  0  0  0  0  0  0  0  0
    2.2540   -0.3660    0.0000 C   0  0  0  0  0  0  0  0  0  0  0  0
    3.9860   -0.3660    0.0000 C   0  0  0  0  0  0  0  0  0  0  0  0
    2.2540   -1.3660    0.0000 C   0  0  0  0  0  0  0  0  0  0  0  0
    3.9860   -1.3660    0.0000 C   0  0  0  0  0  0  0  0  0  0  0  0
    3.1200   -1.8660    0.0000 C   0  0  0  0  0  0  0  0  0  0  0  0
    3.6200    1.0000    0.0000 C   0  0  0  0  0  0  0  0  0  0  0  0
    4.6200    1.0000    0.0000 C   0  0  0  0  0  0  0  0  0  0  0  0
    5.1200    0.1340    0.0000 C   0  0  0  0  0  0  0  0  0  0  0  0
    5.1200    1.8660    0.0000 C   0  0  0  0  0  0  0  0  0  0  0  0
    6.1200    0.1340    0.0000 C   0  0  0  0  0  0  0  0  0  0  0  0
    6.1200    1.8660    0.0000 C   0  0  0  0  0  0  0  0  0  0  0  0
    6.6200    1.0000    0.0000 C   0  0  0  0  0  0  0  0  0  0  0  0
    2.0419    0.2166    0.0000 H   0  0  0  0  0  0  0  0  0  0  0  0
    1.6434   -0.4737    0.0000 H   0  0  0  0  0  0  0  0  0  0  0  0
    4.5966   -0.4737    0.0000 H   0  0  0  0  0  0  0  0  0  0  0  0
    4.1981    0.2166    0.0000 H   0  0  0  0  0  0  0  0  0  0  0  0
    1.6434   -1.2584    0.0000 H   0  0  0  0  0  0  0  0  0  0  0  0
    2.0419   -1.9486    0.0000 H   0  0  0  0  0  0  0  0  0  0  0  0
    4.1981   -1.9486    0.0000 H   0  0  0  0  0  0  0  0  0  0  0  0
    4.5966   -1.2584    0.0000 H   0  0  0  0  0  0  0  0  0  0  0  0
    2.7215   -2.3410    0.0000 H   0  0  0  0  0  0  0  0  0  0  0  0
    3.5185   -2.3410    0.0000 H   0  0  0  0  0  0  0  0  0  0  0  0
    2.0000    1.0000    0.0000 H   0  0  0  0  0  0  0  0  0  0  0  0
    4.8100   -0.4030    0.0000 H   0  0  0  0  0  0  0  0  0  0  0  0
    4.8100    2.4030    0.0000 H   0  0  0  0  0  0  0  0  0  0  0  0
    6.4300   -0.4030    0.0000 H   0  0  0  0  0  0  0  0  0  0  0  0
    6.4300    2.4030    0.0000 H   0  0  0  0  0  0  0  0  0  0  0  0
    7.2400    1.0000    0.0000 H   0  0  0  0  0  0  0  0  0  0  0  0
  1  3  1  0  0  0  0
  1 26  1  0  0  0  0
  2  9  2  0  0  0  0
  3  4  1  0  0  0  0
  3  5  1  0  0  0  0
  3  9  1  0  0  0  0
  4  6  1  0  0  0  0
  4 16  1  0  0  0  0
  4 17  1  0  0  0  0
  5  7  1  0  0  0  0
  5 18  1  0  0  0  0
  5 19  1  0  0  0  0
  6  8  1  0  0  0  0
  6 20  1  0  0  0  0
  6 21  1  0  0  0  0
  7  8  1  0  0  0  0
  7 22  1  0  0  0  0
  7 23  1  0  0  0  0
  8 24  1  0  0  0  0
  8 25  1  0  0  0  0
  9 10  1  0  0  0  0
 10 11  2  0  0  0  0
 10 12  1  0  0  0  0
 11 13  1  0  0  0  0
 11 27  1  0  0  0  0
 12 14  2  0  0  0  0
 12 28  1  0  0  0  0
 13 15  2  0  0  0  0
 13 29  1  0  0  0  0
 14 15  1  0  0  0  0
 14 30  1  0  0  0  0
 15 31  1  0  0  0  0
M  END
> <PUBCHEM_COMPOUND_CID>
70355

> <PUBCHEM_COMPOUND_CANONICALIZED>
1

> <PUBCHEM_CACTVS_COMPLEXITY>
223

> <PUBCHEM_CACTVS_HBOND_ACCEPTOR>
2

> <PUBCHEM_CACTVS_HBOND_DONOR>
1

> <PUBCHEM_CACTVS_ROTATABLE_BOND>
2

> <PUBCHEM_CACTVS_SUBSKEYS>
AAADceBwMAAAAAAAAAAAAAAAAAAAAAAAAAAwYAAAAAAAAAABAAAAGgAACAAADESAmAAwAIAAAgCIAqBSAAICAAAkAAAIiAFAAMgIIDKAFRCAYQAkwAEIiYeIyOCOAAAAAAAAAAAAAAAAAAAAAAAAAAAAAA==

> <PUBCHEM_IUPAC_OPENEYE_NAME>
(1-hydroxycyclohexyl)-phenyl-methanone

> <PUBCHEM_IUPAC_CAS_NAME>
(1-hydroxycyclohexyl)-phenylmethanone

> <PUBCHEM_IUPAC_NAME_MARKUP>
(1-hydroxycyclohexyl)-phenylmethanone

> <PUBCHEM_IUPAC_NAME>
(1-hydroxycyclohexyl)-phenylmethanone

> <PUBCHEM_IUPAC_SYSTEMATIC_NAME>
(1-oxidanylcyclohexyl)-phenyl-methanone

> <PUBCHEM_IUPAC_TRADITIONAL_NAME>
(1-hydroxycyclohexyl)-phenyl-methanone

> <PUBCHEM_IUPAC_INCHI>
InChI=1S/C13H16O2/c14-12(11-7-3-1-4-8-11)13(15)9-5-2-6-10-13/h1,3-4,7-8,15H,2,5-6,9-10H2

> <PUBCHEM_IUPAC_INCHIKEY>
QNODIIQQMGDSEF-UHFFFAOYSA-N

> <PUBCHEM_XLOGP3_AA>
2.6

> <PUBCHEM_EXACT_MASS>
204.115029749

> <PUBCHEM_MOLECULAR_FORMULA>
C13H16O2

> <PUBCHEM_MOLECULAR_WEIGHT>
204.26

> <PUBCHEM_SMILES>
C1CCC(CC1)(C(=O)C2=CC=CC=C2)O

> <PUBCHEM_CONNECTIVITY_SMILES>
C1CCC(CC1)(C(=O)C2=CC=CC=C2)O

> <PUBCHEM_CACTVS_TPSA>
37.3

> <PUBCHEM_MONOISOTOPIC_WEIGHT>
204.115029749

> <PUBCHEM_TOTAL_CHARGE>
0

> <PUBCHEM_HEAVY_ATOM_COUNT>
15

> <PUBCHEM_ATOM_DEF_STEREO_COUNT>
0

> <PUBCHEM_ATOM_UDEF_STEREO_COUNT>
0

> <PUBCHEM_BOND_DEF_STEREO_COUNT>
0

> <PUBCHEM_BOND_UDEF_STEREO_COUNT>
0

> <PUBCHEM_ISOTOPIC_ATOM_COUNT>
0

> <PUBCHEM_COMPONENT_COUNT>
1

> <PUBCHEM_CACTVS_TAUTO_COUNT>
-1

> <PUBCHEM_COORDINATE_TYPE>
1
5
255

> <PUBCHEM_BONDANNOTATIONS>
10  11  8
10  12  8
11  13  8
12  14  8
13  15  8
14  15  8

$$$$
