71357616
  -OEChem-05122609202D

 24 22  0     0  0  0  0  0  0999 V2000
    4.0010    0.6200    0.0000 O   0  0  0  0  0  0  0  0  0  0  0  0
    0.9699    5.2400    0.0000 O   0  0  0  0  0  0  0  0  0  0  0  0
    1.8360    3.7400    0.0000 O   0  0  0  0  0  0  0  0  0  0  0  0
    2.2690    0.6200    0.0000 C   0  0  0  0  0  0  0  0  0  0  0  0
    3.1350    1.1200    0.0000 C   0  0  0  0  0  0  0  0  0  0  0  0
    2.7020    5.2400    0.0000 C   0  0  0  0  0  0  0  0  0  0  0  0
    1.4030    1.1200    0.0000 C   0  0  0  0  0  0  0  0  0  0  0  0
    3.5680    4.7400    0.0000 C   0  0  0  0  0  0  0  0  0  0  0  0
    1.8360    4.7400    0.0000 C   0  0  0  0  0  0  0  0  0  0  0  0
    0.5369    0.6200    0.0000 C   0  0  0  0  0  0  0  0  0  0  0  0
    1.8705    0.1451    0.0000 H   0  0  0  0  0  0  0  0  0  0  0  0
    2.6675    0.1451    0.0000 H   0  0  0  0  0  0  0  0  0  0  0  0
    3.5335    1.5950    0.0000 H   0  0  0  0  0  0  0  0  0  0  0  0
    2.7365    1.5950    0.0000 H   0  0  0  0  0  0  0  0  0  0  0  0
    3.1005    5.7150    0.0000 H   0  0  0  0  0  0  0  0  0  0  0  0
    2.3035    5.7150    0.0000 H   0  0  0  0  0  0  0  0  0  0  0  0
    3.2580    4.2031    0.0000 H   0  0  0  0  0  0  0  0  0  0  0  0
    4.1050    4.4300    0.0000 H   0  0  0  0  0  0  0  0  0  0  0  0
    3.8780    5.2769    0.0000 H   0  0  0  0  0  0  0  0  0  0  0  0
    1.4030    1.7400    0.0000 H   0  0  0  0  0  0  0  0  0  0  0  0
    4.5380    0.9300    0.0000 H   0  0  0  0  0  0  0  0  0  0  0  0
    0.0000    0.9300    0.0000 H   0  0  0  0  0  0  0  0  0  0  0  0
    0.5369    0.0000    0.0000 H   0  0  0  0  0  0  0  0  0  0  0  0
    0.4330    4.9300    0.0000 H   0  0  0  0  0  0  0  0  0  0  0  0
  1  5  1  0  0  0  0
  1 21  1  0  0  0  0
  2  9  1  0  0  0  0
  2 24  1  0  0  0  0
  3  9  2  0  0  0  0
  4  5  1  0  0  0  0
  4  7  1  0  0  0  0
  4 11  1  0  0  0  0
  4 12  1  0  0  0  0
  5 13  1  0  0  0  0
  5 14  1  0  0  0  0
  6  8  1  0  0  0  0
  6  9  1  0  0  0  0
  6 15  1  0  0  0  0
  6 16  1  0  0  0  0
  7 10  2  0  0  0  0
  7 20  1  0  0  0  0
  8 17  1  0  0  0  0
  8 18  1  0  0  0  0
  8 19  1  0  0  0  0
 10 22  1  0  0  0  0
 10 23  1  0  0  0  0
M  END
> <PUBCHEM_COMPOUND_CID>
71357616

> <PUBCHEM_COMPOUND_CANONICALIZED>
1

> <PUBCHEM_CACTVS_COMPLEXITY>
65

> <PUBCHEM_CACTVS_HBOND_ACCEPTOR>
3

> <PUBCHEM_CACTVS_HBOND_DONOR>
2

> <PUBCHEM_CACTVS_ROTATABLE_BOND>
3

> <PUBCHEM_CACTVS_SUBSKEYS>
AAADccBgMAAAAAAAAAAAAAAAAAAAAAAAAAAAAAAAAAAAAAAAAAAAGgAACAAACACggAICCAAAAgCIACDSCAAAAAAgAAAIAAEAAAgAEAAAAQAAQAAAQAAAAAAAAAAAAAAAAAAAAAAAAAAAAAAAAAAAAAAAAA==

> <PUBCHEM_IUPAC_OPENEYE_NAME>
but-3-en-1-ol;propionic acid

> <PUBCHEM_IUPAC_CAS_NAME>
3-buten-1-ol;propanoic acid

> <PUBCHEM_IUPAC_NAME_MARKUP>
but-3-en-1-ol;propanoic acid

> <PUBCHEM_IUPAC_NAME>
but-3-en-1-ol;propanoic acid

> <PUBCHEM_IUPAC_SYSTEMATIC_NAME>
but-3-en-1-ol;propanoic acid

> <PUBCHEM_IUPAC_TRADITIONAL_NAME>
but-3-en-1-ol;propionic acid

> <PUBCHEM_IUPAC_INCHI>
InChI=1S/C4H8O.C3H6O2/c1-2-3-4-5;1-2-3(4)5/h2,5H,1,3-4H2;2H2,1H3,(H,4,5)

> <PUBCHEM_IUPAC_INCHIKEY>
GLOSZEARSVYHEX-UHFFFAOYSA-N

> <PUBCHEM_EXACT_MASS>
146.094294304

> <PUBCHEM_MOLECULAR_FORMULA>
C7H14O3

> <PUBCHEM_MOLECULAR_WEIGHT>
146.18

> <PUBCHEM_SMILES>
CCC(=O)O.C=CCCO

> <PUBCHEM_CONNECTIVITY_SMILES>
CCC(=O)O.C=CCCO

> <PUBCHEM_CACTVS_TPSA>
57.5

> <PUBCHEM_MONOISOTOPIC_WEIGHT>
146.094294304

> <PUBCHEM_TOTAL_CHARGE>
0

> <PUBCHEM_HEAVY_ATOM_COUNT>
10

> <PUBCHEM_ATOM_DEF_STEREO_COUNT>
0

> <PUBCHEM_ATOM_UDEF_STEREO_COUNT>
0

> <PUBCHEM_BOND_DEF_STEREO_COUNT>
0

> <PUBCHEM_BOND_UDEF_STEREO_COUNT>
0

> <PUBCHEM_ISOTOPIC_ATOM_COUNT>
0

> <PUBCHEM_COMPONENT_COUNT>
2

> <PUBCHEM_CACTVS_TAUTO_COUNT>
-1

> <PUBCHEM_COORDINATE_TYPE>
1
5
255

$$$$
