71365151
  -OEChem-05122609552D

 25 26  0     1  0  0  0  0  0999 V2000
    3.7321    1.5000    0.0000 O   0  0  0  0  0  0  0  0  0  0  0  0
    5.4646   -0.5000    0.0000 C   0  0  0  0  0  0  0  0  0  0  0  0
    4.5981   -1.0000    0.0000 C   0  0  3  0  0  0  0  0  0  0  0  0
    4.5981   -0.0000    0.0000 C   0  0  1  0  0  0  0  0  0  0  0  0
    3.7321   -1.5000    0.0000 C   0  0  0  0  0  0  0  0  0  0  0  0
    5.9646   -1.3660    0.0000 C   0  0  0  0  0  0  0  0  0  0  0  0
    5.9646    0.3660    0.0000 C   0  0  0  0  0  0  0  0  0  0  0  0
    3.7321    0.5000    0.0000 C   0  0  0  0  0  0  0  0  0  0  0  0
    2.8660   -1.0000    0.0000 C   0  0  0  0  0  0  0  0  0  0  0  0
    2.8660    0.0000    0.0000 C   0  0  0  0  0  0  0  0  0  0  0  0
    2.0000    0.5000    0.0000 C   0  0  0  0  0  0  0  0  0  0  0  0
    4.9080   -1.5370    0.0000 H   0  0  0  0  0  0  0  0  0  0  0  0
    5.0230    0.7362    0.0000 H   0  0  0  0  0  0  0  0  0  0  0  0
    3.3335   -1.9750    0.0000 H   0  0  0  0  0  0  0  0  0  0  0  0
    4.1306   -1.9750    0.0000 H   0  0  0  0  0  0  0  0  0  0  0  0
    5.4277   -1.6760    0.0000 H   0  0  0  0  0  0  0  0  0  0  0  0
    6.2746   -1.9030    0.0000 H   0  0  0  0  0  0  0  0  0  0  0  0
    6.5016   -1.0560    0.0000 H   0  0  0  0  0  0  0  0  0  0  0  0
    6.5016    0.0560    0.0000 H   0  0  0  0  0  0  0  0  0  0  0  0
    6.2746    0.9030    0.0000 H   0  0  0  0  0  0  0  0  0  0  0  0
    5.4277    0.6760    0.0000 H   0  0  0  0  0  0  0  0  0  0  0  0
    2.3291   -1.3100    0.0000 H   0  0  0  0  0  0  0  0  0  0  0  0
    2.3100    1.0369    0.0000 H   0  0  0  0  0  0  0  0  0  0  0  0
    1.4631    0.8100    0.0000 H   0  0  0  0  0  0  0  0  0  0  0  0
    1.6900   -0.0369    0.0000 H   0  0  0  0  0  0  0  0  0  0  0  0
  1  8  2  0  0  0  0
  2  3  1  0  0  0  0
  2  4  1  0  0  0  0
  2  6  1  0  0  0  0
  2  7  1  0  0  0  0
  3  4  1  0  0  0  0
  3  5  1  0  0  0  0
  3 12  1  0  0  0  0
  4  8  1  0  0  0  0
  4 13  1  6  0  0  0
  5  9  1  0  0  0  0
  5 14  1  0  0  0  0
  5 15  1  0  0  0  0
  6 16  1  0  0  0  0
  6 17  1  0  0  0  0
  6 18  1  0  0  0  0
  7 19  1  0  0  0  0
  7 20  1  0  0  0  0
  7 21  1  0  0  0  0
  8 10  1  0  0  0  0
  9 10  2  0  0  0  0
  9 22  1  0  0  0  0
 10 11  1  0  0  0  0
 11 23  1  0  0  0  0
 11 24  1  0  0  0  0
 11 25  1  0  0  0  0
M  END
> <PUBCHEM_COMPOUND_CID>
71365151

> <PUBCHEM_COMPOUND_CANONICALIZED>
1

> <PUBCHEM_CACTVS_COMPLEXITY>
248

> <PUBCHEM_CACTVS_HBOND_ACCEPTOR>
1

> <PUBCHEM_CACTVS_HBOND_DONOR>
0

> <PUBCHEM_CACTVS_ROTATABLE_BOND>
0

> <PUBCHEM_CACTVS_SUBSKEYS>
AAADccBwIAAAAAAAAAAAAAAAGAAAAAAAAAAgAAAABAAAAAAAAAAAGgAAAAAADwSAgAACAAAAAACIAqBSAAAAAAAgAAAACAEAAEgAABIAAQAAAAAAgAAIAYMIiMAPgAAAAAAAAAAAAAAAAAAAAAAAAAAAAA==

> <PUBCHEM_IUPAC_OPENEYE_NAME>
(1R)-3,7,7-trimethylbicyclo[4.1.0]hept-3-en-2-one

> <PUBCHEM_IUPAC_CAS_NAME>
(1R)-3,7,7-trimethyl-2-bicyclo[4.1.0]hept-3-enone

> <PUBCHEM_IUPAC_NAME_MARKUP>
(1<I>R</I>)-3,7,7-trimethylbicyclo[4.1.0]hept-3-en-2-one

> <PUBCHEM_IUPAC_NAME>
(1R)-3,7,7-trimethylbicyclo[4.1.0]hept-3-en-2-one

> <PUBCHEM_IUPAC_SYSTEMATIC_NAME>
(1R)-3,7,7-trimethylbicyclo[4.1.0]hept-3-en-2-one

> <PUBCHEM_IUPAC_TRADITIONAL_NAME>
(1R)-3,7,7-trimethylbicyclo[4.1.0]hept-3-en-2-one

> <PUBCHEM_IUPAC_INCHI>
InChI=1S/C10H14O/c1-6-4-5-7-8(9(6)11)10(7,2)3/h4,7-8H,5H2,1-3H3/t7?,8-/m0/s1

> <PUBCHEM_IUPAC_INCHIKEY>
SAFIHMIEMQFPDA-MQWKRIRWSA-N

> <PUBCHEM_XLOGP3_AA>
2.2

> <PUBCHEM_EXACT_MASS>
150.104465066

> <PUBCHEM_MOLECULAR_FORMULA>
C10H14O

> <PUBCHEM_MOLECULAR_WEIGHT>
150.22

> <PUBCHEM_SMILES>
CC1=CCC2[C@@H](C1=O)C2(C)C

> <PUBCHEM_CONNECTIVITY_SMILES>
CC1=CCC2C(C1=O)C2(C)C

> <PUBCHEM_CACTVS_TPSA>
17.1

> <PUBCHEM_MONOISOTOPIC_WEIGHT>
150.104465066

> <PUBCHEM_TOTAL_CHARGE>
0

> <PUBCHEM_HEAVY_ATOM_COUNT>
11

> <PUBCHEM_ATOM_DEF_STEREO_COUNT>
1

> <PUBCHEM_ATOM_UDEF_STEREO_COUNT>
1

> <PUBCHEM_BOND_DEF_STEREO_COUNT>
0

> <PUBCHEM_BOND_UDEF_STEREO_COUNT>
0

> <PUBCHEM_ISOTOPIC_ATOM_COUNT>
0

> <PUBCHEM_COMPONENT_COUNT>
1

> <PUBCHEM_CACTVS_TAUTO_COUNT>
-1

> <PUBCHEM_COORDINATE_TYPE>
1
5
255

> <PUBCHEM_BONDANNOTATIONS>
3  5  3
4  13  6

$$$$
