71365854
  -OEChem-05122608452D

111111  0     0  0  0  0  0  0999 V2000
   14.9537    3.0214    0.0000 O   0  0  0  0  0  0  0  0  0  0  0  0
    2.6209    5.0257    0.0000 O   0  0  0  0  0  0  0  0  0  0  0  0
    7.0516   -6.6570    0.0000 O   0  0  0  0  0  0  0  0  0  0  0  0
   13.5900    3.5703    0.0000 N   0  0  0  0  0  0  0  0  0  0  0  0
    8.2087   -5.7504    0.0000 N   0  0  0  0  0  0  0  0  0  0  0  0
    2.8275    3.5703    0.0000 N   0  0  0  0  0  0  0  0  0  0  0  0
   13.3225   -3.0665    0.0000 C   0  0  0  0  0  0  0  0  0  0  0  0
    8.7087    6.6570    0.0000 C   0  0  0  0  0  0  0  0  0  0  0  0
    2.5949   -2.2004    0.0000 C   0  0  0  0  0  0  0  0  0  0  0  0
   12.6901   -3.8411    0.0000 C   0  0  0  0  0  0  0  0  0  0  0  0
    9.6958    6.4966    0.0000 C   0  0  0  0  0  0  0  0  0  0  0  0
    2.2403   -1.2654    0.0000 C   0  0  0  0  0  0  0  0  0  0  0  0
   13.8225   -2.2004    0.0000 C   0  0  0  0  0  0  0  0  0  0  0  0
    7.7087    6.6570    0.0000 C   0  0  0  0  0  0  0  0  0  0  0  0
    3.0949   -3.0665    0.0000 C   0  0  0  0  0  0  0  0  0  0  0  0
   11.9416   -4.5042    0.0000 C   0  0  0  0  0  0  0  0  0  0  0  0
   10.6443    6.1799    0.0000 C   0  0  0  0  0  0  0  0  0  0  0  0
    2.0403   -0.2856    0.0000 C   0  0  0  0  0  0  0  0  0  0  0  0
   14.1772   -1.2654    0.0000 C   0  0  0  0  0  0  0  0  0  0  0  0
    6.7217    6.4966    0.0000 C   0  0  0  0  0  0  0  0  0  0  0  0
    3.7273   -3.8411    0.0000 C   0  0  0  0  0  0  0  0  0  0  0  0
   11.0964   -5.0387    0.0000 C   0  0  0  0  0  0  0  0  0  0  0  0
   11.5298    5.7152    0.0000 C   0  0  0  0  0  0  0  0  0  0  0  0
    2.0000    0.7136    0.0000 C   0  0  0  0  0  0  0  0  0  0  0  0
   14.3772   -0.2856    0.0000 C   0  0  0  0  0  0  0  0  0  0  0  0
    5.7731    6.1799    0.0000 C   0  0  0  0  0  0  0  0  0  0  0  0
    4.4759   -4.5042    0.0000 C   0  0  0  0  0  0  0  0  0  0  0  0
   10.1764   -5.4306    0.0000 C   0  0  0  0  0  0  0  0  0  0  0  0
   12.3292    5.1144    0.0000 C   0  0  0  0  0  0  0  0  0  0  0  0
    2.1205    1.7063    0.0000 C   0  0  0  0  0  0  0  0  0  0  0  0
   14.4174    0.7136    0.0000 C   0  0  0  0  0  0  0  0  0  0  0  0
    4.8877    5.7152    0.0000 C   0  0  0  0  0  0  0  0  0  0  0  0
    5.3210   -5.0387    0.0000 C   0  0  0  0  0  0  0  0  0  0  0  0
   13.0219    4.3932    0.0000 C   0  0  0  0  0  0  0  0  0  0  0  0
    9.2055   -5.6699    0.0000 C   0  0  0  0  0  0  0  0  0  0  0  0
    2.3988    2.6668    0.0000 C   0  0  0  0  0  0  0  0  0  0  0  0
   14.2969    1.7063    0.0000 C   0  0  0  0  0  0  0  0  0  0  0  0
    4.0882    5.1144    0.0000 C   0  0  0  0  0  0  0  0  0  0  0  0
    6.2410   -5.4306    0.0000 C   0  0  0  0  0  0  0  0  0  0  0  0
   14.0187    2.6668    0.0000 C   0  0  0  0  0  0  0  0  0  0  0  0
    3.3955    4.3932    0.0000 C   0  0  0  0  0  0  0  0  0  0  0  0
    7.2120   -5.6699    0.0000 C   0  0  0  0  0  0  0  0  0  0  0  0
   13.5732   -3.6335    0.0000 H   0  0  0  0  0  0  0  0  0  0  0  0
   12.8123   -2.7143    0.0000 H   0  0  0  0  0  0  0  0  0  0  0  0
    9.0745    7.1576    0.0000 H   0  0  0  0  0  0  0  0  0  0  0  0
    8.6588    6.0390    0.0000 H   0  0  0  0  0  0  0  0  0  0  0  0
    1.9785   -2.1340    0.0000 H   0  0  0  0  0  0  0  0  0  0  0  0
    3.1550   -1.9346    0.0000 H   0  0  0  0  0  0  0  0  0  0  0  0
   12.8465   -4.4410    0.0000 H   0  0  0  0  0  0  0  0  0  0  0  0
   12.2430   -3.4116    0.0000 H   0  0  0  0  0  0  0  0  0  0  0  0
    9.5474    5.8946    0.0000 H   0  0  0  0  0  0  0  0  0  0  0  0
   10.1371    6.9320    0.0000 H   0  0  0  0  0  0  0  0  0  0  0  0
    1.6425   -1.1009    0.0000 H   0  0  0  0  0  0  0  0  0  0  0  0
    2.8358   -1.0929    0.0000 H   0  0  0  0  0  0  0  0  0  0  0  0
   14.1609   -2.7200    0.0000 H   0  0  0  0  0  0  0  0  0  0  0  0
   13.2624   -1.9346    0.0000 H   0  0  0  0  0  0  0  0  0  0  0  0
    7.9895    7.2098    0.0000 H   0  0  0  0  0  0  0  0  0  0  0  0
    7.7586    6.0390    0.0000 H   0  0  0  0  0  0  0  0  0  0  0  0
    2.4758   -3.0997    0.0000 H   0  0  0  0  0  0  0  0  0  0  0  0
    3.6052   -2.7143    0.0000 H   0  0  0  0  0  0  0  0  0  0  0  0
   11.9998   -5.1214    0.0000 H   0  0  0  0  0  0  0  0  0  0  0  0
   11.5691   -4.0085    0.0000 H   0  0  0  0  0  0  0  0  0  0  0  0
   10.4013    5.6095    0.0000 H   0  0  0  0  0  0  0  0  0  0  0  0
   11.1498    6.5389    0.0000 H   0  0  0  0  0  0  0  0  0  0  0  0
    1.4766   -0.0274    0.0000 H   0  0  0  0  0  0  0  0  0  0  0  0
    2.6558   -0.2109    0.0000 H   0  0  0  0  0  0  0  0  0  0  0  0
   14.5945   -1.7239    0.0000 H   0  0  0  0  0  0  0  0  0  0  0  0
   13.5816   -1.0929    0.0000 H   0  0  0  0  0  0  0  0  0  0  0  0
    6.9101    7.0872    0.0000 H   0  0  0  0  0  0  0  0  0  0  0  0
    6.8701    5.8946    0.0000 H   0  0  0  0  0  0  0  0  0  0  0  0
    3.1216   -3.9732    0.0000 H   0  0  0  0  0  0  0  0  0  0  0  0
    4.1745   -3.4116    0.0000 H   0  0  0  0  0  0  0  0  0  0  0  0
   11.0548   -5.6573    0.0000 H   0  0  0  0  0  0  0  0  0  0  0  0
   10.8083   -4.4897    0.0000 H   0  0  0  0  0  0  0  0  0  0  0  0
   11.1984    5.1912    0.0000 H   0  0  0  0  0  0  0  0  0  0  0  0
   12.0863    5.9885    0.0000 H   0  0  0  0  0  0  0  0  0  0  0  0
    1.4851    1.0589    0.0000 H   0  0  0  0  0  0  0  0  0  0  0  0
    2.6195    0.6886    0.0000 H   0  0  0  0  0  0  0  0  0  0  0  0
   14.8627   -0.6713    0.0000 H   0  0  0  0  0  0  0  0  0  0  0  0
   13.7617   -0.2109    0.0000 H   0  0  0  0  0  0  0  0  0  0  0  0
    5.8644    6.7932    0.0000 H   0  0  0  0  0  0  0  0  0  0  0  0
    6.0162    5.6095    0.0000 H   0  0  0  0  0  0  0  0  0  0  0  0
    3.8992   -4.7318    0.0000 H   0  0  0  0  0  0  0  0  0  0  0  0
    4.8483   -4.0085    0.0000 H   0  0  0  0  0  0  0  0  0  0  0  0
   10.0361   -6.0345    0.0000 H   0  0  0  0  0  0  0  0  0  0  0  0
    9.9801   -4.8425    0.0000 H   0  0  0  0  0  0  0  0  0  0  0  0
   11.9181    4.6504    0.0000 H   0  0  0  0  0  0  0  0  0  0  0  0
   12.9224    5.2949    0.0000 H   0  0  0  0  0  0  0  0  0  0  0  0
    1.6677    2.1297    0.0000 H   0  0  0  0  0  0  0  0  0  0  0  0
    2.7280    1.5823    0.0000 H   0  0  0  0  0  0  0  0  0  0  0  0
   14.9585    0.4108    0.0000 H   0  0  0  0  0  0  0  0  0  0  0  0
   13.7979    0.6886    0.0000 H   0  0  0  0  0  0  0  0  0  0  0  0
    4.8794    6.3351    0.0000 H   0  0  0  0  0  0  0  0  0  0  0  0
    5.2191    5.1912    0.0000 H   0  0  0  0  0  0  0  0  0  0  0  0
    4.7883   -5.3558    0.0000 H   0  0  0  0  0  0  0  0  0  0  0  0
    5.6092   -4.4897    0.0000 H   0  0  0  0  0  0  0  0  0  0  0  0
   13.6364    4.4762    0.0000 H   0  0  0  0  0  0  0  0  0  0  0  0
   12.5417    4.0011    0.0000 H   0  0  0  0  0  0  0  0  0  0  0  0
    8.9701   -6.2435    0.0000 H   0  0  0  0  0  0  0  0  0  0  0  0
    9.1060   -5.0580    0.0000 H   0  0  0  0  0  0  0  0  0  0  0  0
    2.0197    3.1574    0.0000 H   0  0  0  0  0  0  0  0  0  0  0  0
    2.9785    2.4469    0.0000 H   0  0  0  0  0  0  0  0  0  0  0  0
   14.8795    1.4942    0.0000 H   0  0  0  0  0  0  0  0  0  0  0  0
   13.6894    1.5823    0.0000 H   0  0  0  0  0  0  0  0  0  0  0  0
    3.9806    5.7250    0.0000 H   0  0  0  0  0  0  0  0  0  0  0  0
    4.4994    4.6504    0.0000 H   0  0  0  0  0  0  0  0  0  0  0  0
    5.7661   -5.8291    0.0000 H   0  0  0  0  0  0  0  0  0  0  0  0
    6.4374   -4.8425    0.0000 H   0  0  0  0  0  0  0  0  0  0  0  0
   14.1269    3.8803    0.0000 H   0  0  0  0  0  0  0  0  0  0  0  0
    8.2087   -6.3704    0.0000 H   0  0  0  0  0  0  0  0  0  0  0  0
    2.2905    3.8803    0.0000 H   0  0  0  0  0  0  0  0  0  0  0  0
  1 40  2  0  0  0  0
  2 41  2  0  0  0  0
  3 42  2  0  0  0  0
  4 34  1  0  0  0  0
  4 40  1  0  0  0  0
  4109  1  0  0  0  0
  5 35  1  0  0  0  0
  5 42  1  0  0  0  0
  5110  1  0  0  0  0
  6 36  1  0  0  0  0
  6 41  1  0  0  0  0
  6111  1  0  0  0  0
  7 10  1  0  0  0  0
  7 13  1  0  0  0  0
  7 43  1  0  0  0  0
  7 44  1  0  0  0  0
  8 11  1  0  0  0  0
  8 14  1  0  0  0  0
  8 45  1  0  0  0  0
  8 46  1  0  0  0  0
  9 12  1  0  0  0  0
  9 15  1  0  0  0  0
  9 47  1  0  0  0  0
  9 48  1  0  0  0  0
 10 16  1  0  0  0  0
 10 49  1  0  0  0  0
 10 50  1  0  0  0  0
 11 17  1  0  0  0  0
 11 51  1  0  0  0  0
 11 52  1  0  0  0  0
 12 18  1  0  0  0  0
 12 53  1  0  0  0  0
 12 54  1  0  0  0  0
 13 19  1  0  0  0  0
 13 55  1  0  0  0  0
 13 56  1  0  0  0  0
 14 20  1  0  0  0  0
 14 57  1  0  0  0  0
 14 58  1  0  0  0  0
 15 21  1  0  0  0  0
 15 59  1  0  0  0  0
 15 60  1  0  0  0  0
 16 22  1  0  0  0  0
 16 61  1  0  0  0  0
 16 62  1  0  0  0  0
 17 23  1  0  0  0  0
 17 63  1  0  0  0  0
 17 64  1  0  0  0  0
 18 24  1  0  0  0  0
 18 65  1  0  0  0  0
 18 66  1  0  0  0  0
 19 25  1  0  0  0  0
 19 67  1  0  0  0  0
 19 68  1  0  0  0  0
 20 26  1  0  0  0  0
 20 69  1  0  0  0  0
 20 70  1  0  0  0  0
 21 27  1  0  0  0  0
 21 71  1  0  0  0  0
 21 72  1  0  0  0  0
 22 28  1  0  0  0  0
 22 73  1  0  0  0  0
 22 74  1  0  0  0  0
 23 29  1  0  0  0  0
 23 75  1  0  0  0  0
 23 76  1  0  0  0  0
 24 30  1  0  0  0  0
 24 77  1  0  0  0  0
 24 78  1  0  0  0  0
 25 31  1  0  0  0  0
 25 79  1  0  0  0  0
 25 80  1  0  0  0  0
 26 32  1  0  0  0  0
 26 81  1  0  0  0  0
 26 82  1  0  0  0  0
 27 33  1  0  0  0  0
 27 83  1  0  0  0  0
 27 84  1  0  0  0  0
 28 35  1  0  0  0  0
 28 85  1  0  0  0  0
 28 86  1  0  0  0  0
 29 34  1  0  0  0  0
 29 87  1  0  0  0  0
 29 88  1  0  0  0  0
 30 36  1  0  0  0  0
 30 89  1  0  0  0  0
 30 90  1  0  0  0  0
 31 37  1  0  0  0  0
 31 91  1  0  0  0  0
 31 92  1  0  0  0  0
 32 38  1  0  0  0  0
 32 93  1  0  0  0  0
 32 94  1  0  0  0  0
 33 39  1  0  0  0  0
 33 95  1  0  0  0  0
 33 96  1  0  0  0  0
 34 97  1  0  0  0  0
 34 98  1  0  0  0  0
 35 99  1  0  0  0  0
 35100  1  0  0  0  0
 36101  1  0  0  0  0
 36102  1  0  0  0  0
 37 40  1  0  0  0  0
 37103  1  0  0  0  0
 37104  1  0  0  0  0
 38 41  1  0  0  0  0
 38105  1  0  0  0  0
 38106  1  0  0  0  0
 39 42  1  0  0  0  0
 39107  1  0  0  0  0
 39108  1  0  0  0  0
M  END
> <PUBCHEM_COMPOUND_CID>
71365854

> <PUBCHEM_COMPOUND_CANONICALIZED>
1

> <PUBCHEM_CACTVS_COMPLEXITY>
555

> <PUBCHEM_CACTVS_HBOND_ACCEPTOR>
3

> <PUBCHEM_CACTVS_HBOND_DONOR>
3

> <PUBCHEM_CACTVS_ROTATABLE_BOND>
0

> <PUBCHEM_CACTVS_SUBSKEYS>
AAADcfB/MAAAAAAAAAAAAAAAAAAAAAAAAAAAAAAAAAAAAAAAAAAAHgAQAAAACADBgAQAAALAAAAIAAEQEAAAAAAAAAAAAIEIAAAAABIAgAAEAAAAFgCAAAEYiICAAAAAAAAAAAAAAAAAAAAAAAAAAAAAAA==

> <PUBCHEM_IUPAC_OPENEYE_NAME>
1,14,27-triazacyclononatriacontane-2,15,28-trione

> <PUBCHEM_IUPAC_CAS_NAME>
1,14,27-triazacyclononatriacontane-2,15,28-trione

> <PUBCHEM_IUPAC_NAME_MARKUP>
1,14,27-triazacyclononatriacontane-2,15,28-trione

> <PUBCHEM_IUPAC_NAME>
1,14,27-triazacyclononatriacontane-2,15,28-trione

> <PUBCHEM_IUPAC_SYSTEMATIC_NAME>
1,14,27-triazacyclononatriacontane-2,15,28-trione

> <PUBCHEM_IUPAC_TRADITIONAL_NAME>
1,14,27-triazacyclononatriacontane-2,15,28-trione

> <PUBCHEM_IUPAC_INCHI>
InChI=1S/C36H69N3O3/c40-34-28-22-16-10-4-1-7-13-19-25-31-37-35(41)29-23-17-11-5-2-9-15-21-27-33-39-36(42)30-24-18-12-6-3-8-14-20-26-32-38-34/h1-33H2,(H,37,41)(H,38,40)(H,39,42)

> <PUBCHEM_IUPAC_INCHIKEY>
JVPCLRNAEMPAAP-UHFFFAOYSA-N

> <PUBCHEM_XLOGP3_AA>
10.7

> <PUBCHEM_EXACT_MASS>
591.53389307

> <PUBCHEM_MOLECULAR_FORMULA>
C36H69N3O3

> <PUBCHEM_MOLECULAR_WEIGHT>
592.0

> <PUBCHEM_SMILES>
C1CCCCCC(=O)NCCCCCCCCCCCC(=O)NCCCCCCCCCCCC(=O)NCCCCC1

> <PUBCHEM_CONNECTIVITY_SMILES>
C1CCCCCC(=O)NCCCCCCCCCCCC(=O)NCCCCCCCCCCCC(=O)NCCCCC1

> <PUBCHEM_CACTVS_TPSA>
87.3

> <PUBCHEM_MONOISOTOPIC_WEIGHT>
591.53389307

> <PUBCHEM_TOTAL_CHARGE>
0

> <PUBCHEM_HEAVY_ATOM_COUNT>
42

> <PUBCHEM_ATOM_DEF_STEREO_COUNT>
0

> <PUBCHEM_ATOM_UDEF_STEREO_COUNT>
0

> <PUBCHEM_BOND_DEF_STEREO_COUNT>
0

> <PUBCHEM_BOND_UDEF_STEREO_COUNT>
0

> <PUBCHEM_ISOTOPIC_ATOM_COUNT>
0

> <PUBCHEM_COMPONENT_COUNT>
1

> <PUBCHEM_CACTVS_TAUTO_COUNT>
-1

> <PUBCHEM_COORDINATE_TYPE>
1
5
255

$$$$
