71404795
  -OEChem-05122609302D

 30 29  0     0  0  0  0  0  0999 V2000
    5.9641   -1.1830    0.0000 F   0  0  0  0  0  0  0  0  0  0  0  0
    4.9641    0.5490    0.0000 F   0  0  0  0  0  0  0  0  0  0  0  0
    5.8301    1.0490    0.0000 F   0  0  0  0  0  0  0  0  0  0  0  0
    6.8301   -0.6830    0.0000 F   0  0  0  0  0  0  0  0  0  0  0  0
    4.0981    0.0490    0.0000 F   0  0  0  0  0  0  0  0  0  0  0  0
    5.0981   -1.6830    0.0000 F   0  0  0  0  0  0  0  0  0  0  0  0
    7.6962   -0.1830    0.0000 F   0  0  0  0  0  0  0  0  0  0  0  0
    6.6962    1.5490    0.0000 F   0  0  0  0  0  0  0  0  0  0  0  0
    3.2320   -0.4510    0.0000 F   0  0  0  0  0  0  0  0  0  0  0  0
    4.2320   -2.1830    0.0000 F   0  0  0  0  0  0  0  0  0  0  0  0
    8.5622    0.3170    0.0000 F   0  0  0  0  0  0  0  0  0  0  0  0
    7.5622    2.0490    0.0000 F   0  0  0  0  0  0  0  0  0  0  0  0
    2.0000   -2.3170    0.0000 F   0  0  0  0  0  0  0  0  0  0  0  0
    2.3660   -0.9510    0.0000 F   0  0  0  0  0  0  0  0  0  0  0  0
    3.3660   -2.6830    0.0000 F   0  0  0  0  0  0  0  0  0  0  0  0
    8.9282    2.6830    0.0000 F   0  0  0  0  0  0  0  0  0  0  0  0
   11.5263    1.1830    0.0000 O   0  0  0  0  0  0  0  0  0  0  0  0
   10.6603    2.6830    0.0000 O   0  0  0  0  0  0  0  0  0  0  0  0
    5.4641   -0.3170    0.0000 C   0  0  0  0  0  0  0  0  0  0  0  0
    6.3301    0.1830    0.0000 C   0  0  0  0  0  0  0  0  0  0  0  0
    4.5981   -0.8170    0.0000 C   0  0  0  0  0  0  0  0  0  0  0  0
    7.1962    0.6830    0.0000 C   0  0  0  0  0  0  0  0  0  0  0  0
    3.7320   -1.3170    0.0000 C   0  0  0  0  0  0  0  0  0  0  0  0
    8.0622    1.1830    0.0000 C   0  0  0  0  0  0  0  0  0  0  0  0
    2.8660   -1.8170    0.0000 C   0  0  0  0  0  0  0  0  0  0  0  0
    8.9282    1.6830    0.0000 C   0  0  0  0  0  0  0  0  0  0  0  0
    9.7942    1.1830    0.0000 C   0  0  0  0  0  0  0  0  0  0  0  0
   10.6603    1.6830    0.0000 C   0  0  0  0  0  0  0  0  0  0  0  0
    9.7942    0.5630    0.0000 H   0  0  0  0  0  0  0  0  0  0  0  0
   12.0632    1.4930    0.0000 H   0  0  0  0  0  0  0  0  0  0  0  0
  1 19  1  0  0  0  0
  2 19  1  0  0  0  0
  3 20  1  0  0  0  0
  4 20  1  0  0  0  0
  5 21  1  0  0  0  0
  6 21  1  0  0  0  0
  7 22  1  0  0  0  0
  8 22  1  0  0  0  0
  9 23  1  0  0  0  0
 10 23  1  0  0  0  0
 11 24  1  0  0  0  0
 12 24  1  0  0  0  0
 13 25  1  0  0  0  0
 14 25  1  0  0  0  0
 15 25  1  0  0  0  0
 16 26  1  0  0  0  0
 17 28  1  0  0  0  0
 17 30  1  0  0  0  0
 18 28  2  0  0  0  0
 19 20  1  0  0  0  0
 19 21  1  0  0  0  0
 20 22  1  0  0  0  0
 21 23  1  0  0  0  0
 22 24  1  0  0  0  0
 23 25  1  0  0  0  0
 24 26  1  0  0  0  0
 26 27  2  3  0  0  0
 27 28  1  0  0  0  0
 27 29  1  0  0  0  0
M  END
> <PUBCHEM_COMPOUND_CID>
71404795

> <PUBCHEM_COMPOUND_CANONICALIZED>
1

> <PUBCHEM_CACTVS_COMPLEXITY>
642

> <PUBCHEM_CACTVS_HBOND_ACCEPTOR>
18

> <PUBCHEM_CACTVS_HBOND_DONOR>
1

> <PUBCHEM_CACTVS_ROTATABLE_BOND>
7

> <PUBCHEM_CACTVS_SUBSKEYS>
AAADcQBwMcAAAAAAAAAAAAAAAAAAAAAAAAAAAAAAAAAAAAAAAAAAGwAACAAACACAgBAACAAAAgCIACDSCAAAAAAgAAAACAAAAEgABAIAAAAAEAAAgAAIEQMAgIAAAAAAAAAAAAAAAAAAAAAAAAAAAAAAAA==

> <PUBCHEM_IUPAC_OPENEYE_NAME>
3,4,4,5,5,6,6,7,7,8,8,9,9,10,10,10-hexadecafluorodec-2-enoic acid

> <PUBCHEM_IUPAC_CAS_NAME>
3,4,4,5,5,6,6,7,7,8,8,9,9,10,10,10-hexadecafluoro-2-decenoic acid

> <PUBCHEM_IUPAC_NAME_MARKUP>
3,4,4,5,5,6,6,7,7,8,8,9,9,10,10,10-hexadecafluorodec-2-enoic acid

> <PUBCHEM_IUPAC_NAME>
3,4,4,5,5,6,6,7,7,8,8,9,9,10,10,10-hexadecafluorodec-2-enoic acid

> <PUBCHEM_IUPAC_SYSTEMATIC_NAME>
3,4,4,5,5,6,6,7,7,8,8,9,9,10,10,10-hexadecakis(fluoranyl)dec-2-enoic acid

> <PUBCHEM_IUPAC_TRADITIONAL_NAME>
3,4,4,5,5,6,6,7,7,8,8,9,9,10,10,10-hexadecafluorodec-2-enoic acid

> <PUBCHEM_IUPAC_INCHI>
InChI=1S/C10H2F16O2/c11-2(1-3(27)28)4(12,13)5(14,15)6(16,17)7(18,19)8(20,21)9(22,23)10(24,25)26/h1H,(H,27,28)

> <PUBCHEM_IUPAC_INCHIKEY>
WHZXTVOEGZRRJM-UHFFFAOYSA-N

> <PUBCHEM_XLOGP3_AA>
5.1

> <PUBCHEM_EXACT_MASS>
457.9799299

> <PUBCHEM_MOLECULAR_FORMULA>
C10H2F16O2

> <PUBCHEM_MOLECULAR_WEIGHT>
458.10

> <PUBCHEM_SMILES>
C(=C(C(C(C(C(C(C(C(F)(F)F)(F)F)(F)F)(F)F)(F)F)(F)F)(F)F)F)C(=O)O

> <PUBCHEM_CONNECTIVITY_SMILES>
C(=C(C(C(C(C(C(C(C(F)(F)F)(F)F)(F)F)(F)F)(F)F)(F)F)(F)F)F)C(=O)O

> <PUBCHEM_CACTVS_TPSA>
37.3

> <PUBCHEM_MONOISOTOPIC_WEIGHT>
457.9799299

> <PUBCHEM_TOTAL_CHARGE>
0

> <PUBCHEM_HEAVY_ATOM_COUNT>
28

> <PUBCHEM_ATOM_DEF_STEREO_COUNT>
0

> <PUBCHEM_ATOM_UDEF_STEREO_COUNT>
0

> <PUBCHEM_BOND_DEF_STEREO_COUNT>
0

> <PUBCHEM_BOND_UDEF_STEREO_COUNT>
1

> <PUBCHEM_ISOTOPIC_ATOM_COUNT>
0

> <PUBCHEM_COMPONENT_COUNT>
1

> <PUBCHEM_CACTVS_TAUTO_COUNT>
-1

> <PUBCHEM_COORDINATE_TYPE>
1
5
255

> <PUBCHEM_BONDANNOTATIONS>
26  27  1

$$$$
