71404952
  -OEChem-05122609432D

113112  0     1  0  0  0  0  0999 V2000
   18.4545    1.6550    0.0000 O   0  0  0  0  0  0  0  0  0  0  0  0
   14.9904   -1.3450    0.0000 O   0  0  0  0  0  0  0  0  0  0  0  0
   19.3205    0.1550    0.0000 O   0  0  0  0  0  0  0  0  0  0  0  0
   15.8564    1.1550    0.0000 N   0  0  3  0  0  0  0  0  0  0  0  0
   10.6603    1.1550    0.0000 C   0  0  0  0  0  0  0  0  0  0  0  0
    9.7942    1.6550    0.0000 C   0  0  0  0  0  0  0  0  0  0  0  0
   11.5263    1.6550    0.0000 C   0  0  0  0  0  0  0  0  0  0  0  0
    8.9282    1.1550    0.0000 C   0  0  0  0  0  0  0  0  0  0  0  0
   12.3923    1.1550    0.0000 C   0  0  0  0  0  0  0  0  0  0  0  0
    8.0622    1.6550    0.0000 C   0  0  0  0  0  0  0  0  0  0  0  0
   13.2583    1.6550    0.0000 C   0  0  0  0  0  0  0  0  0  0  0  0
    7.1962    1.1550    0.0000 C   0  0  0  0  0  0  0  0  0  0  0  0
   14.1244    1.1550    0.0000 C   0  0  0  0  0  0  0  0  0  0  0  0
    6.3301    1.6550    0.0000 C   0  0  0  0  0  0  0  0  0  0  0  0
   25.3827    1.6550    0.0000 C   0  0  0  0  0  0  0  0  0  0  0  0
   26.2487    1.1550    0.0000 C   0  0  0  0  0  0  0  0  0  0  0  0
   24.5167    1.1550    0.0000 C   0  0  0  0  0  0  0  0  0  0  0  0
   27.1147    1.6550    0.0000 C   0  0  0  0  0  0  0  0  0  0  0  0
   14.9904    1.6550    0.0000 C   0  0  0  0  0  0  0  0  0  0  0  0
   23.6506    1.6550    0.0000 C   0  0  0  0  0  0  0  0  0  0  0  0
    5.4641    1.1550    0.0000 C   0  0  0  0  0  0  0  0  0  0  0  0
   27.9808    1.1550    0.0000 C   0  0  0  0  0  0  0  0  0  0  0  0
   22.7846    1.1550    0.0000 C   0  0  0  0  0  0  0  0  0  0  0  0
   28.8468    1.6550    0.0000 C   0  0  0  0  0  0  0  0  0  0  0  0
    4.5981    1.6550    0.0000 C   0  0  0  0  0  0  0  0  0  0  0  0
   21.9186    1.6550    0.0000 C   0  0  0  0  0  0  0  0  0  0  0  0
   29.7128    1.1550    0.0000 C   0  0  0  0  0  0  0  0  0  0  0  0
   16.7224    1.6550    0.0000 C   0  0  0  0  0  0  0  0  0  0  0  0
   21.0526    1.1550    0.0000 C   0  0  0  0  0  0  0  0  0  0  0  0
   15.8564    0.1550    0.0000 C   0  0  0  0  0  0  0  0  0  0  0  0
    3.7320    1.1550    0.0000 C   0  0  0  0  0  0  0  0  0  0  0  0
   30.5788    1.6550    0.0000 C   0  0  0  0  0  0  0  0  0  0  0  0
   17.5885    1.1550    0.0000 C   0  0  0  0  0  0  0  0  0  0  0  0
   20.1865    1.6550    0.0000 C   0  0  0  0  0  0  0  0  0  0  0  0
    2.8660    1.6550    0.0000 C   0  0  0  0  0  0  0  0  0  0  0  0
   31.4449    1.1550    0.0000 C   0  0  0  0  0  0  0  0  0  0  0  0
   14.9904   -0.3450    0.0000 C   0  0  0  0  0  0  0  0  0  0  0  0
   19.3205    1.1550    0.0000 C   0  0  0  0  0  0  0  0  0  0  0  0
    2.0000    1.1550    0.0000 C   0  0  0  0  0  0  0  0  0  0  0  0
   32.3109    1.6550    0.0000 C   0  0  0  0  0  0  0  0  0  0  0  0
   10.2617    0.6801    0.0000 H   0  0  0  0  0  0  0  0  0  0  0  0
   11.0588    0.6801    0.0000 H   0  0  0  0  0  0  0  0  0  0  0  0
   10.1928    2.1300    0.0000 H   0  0  0  0  0  0  0  0  0  0  0  0
    9.3957    2.1300    0.0000 H   0  0  0  0  0  0  0  0  0  0  0  0
   11.9248    2.1300    0.0000 H   0  0  0  0  0  0  0  0  0  0  0  0
   11.1278    2.1300    0.0000 H   0  0  0  0  0  0  0  0  0  0  0  0
    8.5297    0.6801    0.0000 H   0  0  0  0  0  0  0  0  0  0  0  0
    9.3267    0.6801    0.0000 H   0  0  0  0  0  0  0  0  0  0  0  0
   11.9938    0.6801    0.0000 H   0  0  0  0  0  0  0  0  0  0  0  0
   12.7908    0.6801    0.0000 H   0  0  0  0  0  0  0  0  0  0  0  0
    8.4607    2.1300    0.0000 H   0  0  0  0  0  0  0  0  0  0  0  0
    7.6636    2.1300    0.0000 H   0  0  0  0  0  0  0  0  0  0  0  0
   13.6569    2.1300    0.0000 H   0  0  0  0  0  0  0  0  0  0  0  0
   12.8598    2.1300    0.0000 H   0  0  0  0  0  0  0  0  0  0  0  0
    6.7976    0.6801    0.0000 H   0  0  0  0  0  0  0  0  0  0  0  0
    7.5947    0.6801    0.0000 H   0  0  0  0  0  0  0  0  0  0  0  0
   13.7258    0.6801    0.0000 H   0  0  0  0  0  0  0  0  0  0  0  0
   14.5229    0.6801    0.0000 H   0  0  0  0  0  0  0  0  0  0  0  0
    6.7287    2.1300    0.0000 H   0  0  0  0  0  0  0  0  0  0  0  0
    5.9316    2.1300    0.0000 H   0  0  0  0  0  0  0  0  0  0  0  0
   25.7812    2.1300    0.0000 H   0  0  0  0  0  0  0  0  0  0  0  0
   24.9842    2.1300    0.0000 H   0  0  0  0  0  0  0  0  0  0  0  0
   25.8502    0.6801    0.0000 H   0  0  0  0  0  0  0  0  0  0  0  0
   26.6472    0.6801    0.0000 H   0  0  0  0  0  0  0  0  0  0  0  0
   24.1181    0.6801    0.0000 H   0  0  0  0  0  0  0  0  0  0  0  0
   24.9152    0.6801    0.0000 H   0  0  0  0  0  0  0  0  0  0  0  0
   27.5133    2.1300    0.0000 H   0  0  0  0  0  0  0  0  0  0  0  0
   26.7162    2.1300    0.0000 H   0  0  0  0  0  0  0  0  0  0  0  0
   15.3889    2.1300    0.0000 H   0  0  0  0  0  0  0  0  0  0  0  0
   14.5919    2.1300    0.0000 H   0  0  0  0  0  0  0  0  0  0  0  0
   24.0492    2.1300    0.0000 H   0  0  0  0  0  0  0  0  0  0  0  0
   23.2521    2.1300    0.0000 H   0  0  0  0  0  0  0  0  0  0  0  0
   27.5822    0.6801    0.0000 H   0  0  0  0  0  0  0  0  0  0  0  0
   28.3793    0.6801    0.0000 H   0  0  0  0  0  0  0  0  0  0  0  0
    5.0656    0.6801    0.0000 H   0  0  0  0  0  0  0  0  0  0  0  0
    5.8626    0.6801    0.0000 H   0  0  0  0  0  0  0  0  0  0  0  0
   22.3861    0.6801    0.0000 H   0  0  0  0  0  0  0  0  0  0  0  0
   23.1831    0.6801    0.0000 H   0  0  0  0  0  0  0  0  0  0  0  0
   29.2453    2.1300    0.0000 H   0  0  0  0  0  0  0  0  0  0  0  0
   28.4483    2.1300    0.0000 H   0  0  0  0  0  0  0  0  0  0  0  0
    4.9966    2.1300    0.0000 H   0  0  0  0  0  0  0  0  0  0  0  0
    4.1996    2.1300    0.0000 H   0  0  0  0  0  0  0  0  0  0  0  0
   22.3171    2.1300    0.0000 H   0  0  0  0  0  0  0  0  0  0  0  0
   21.5201    2.1300    0.0000 H   0  0  0  0  0  0  0  0  0  0  0  0
   29.3143    0.6801    0.0000 H   0  0  0  0  0  0  0  0  0  0  0  0
   30.1113    0.6801    0.0000 H   0  0  0  0  0  0  0  0  0  0  0  0
   17.1210    2.1300    0.0000 H   0  0  0  0  0  0  0  0  0  0  0  0
   16.3239    2.1300    0.0000 H   0  0  0  0  0  0  0  0  0  0  0  0
   20.6540    0.6801    0.0000 H   0  0  0  0  0  0  0  0  0  0  0  0
   21.4511    0.6801    0.0000 H   0  0  0  0  0  0  0  0  0  0  0  0
   16.0685   -0.4276    0.0000 H   0  0  0  0  0  0  0  0  0  0  0  0
   16.4670    0.2627    0.0000 H   0  0  0  0  0  0  0  0  0  0  0  0
    3.3335    0.6801    0.0000 H   0  0  0  0  0  0  0  0  0  0  0  0
    4.1306    0.6801    0.0000 H   0  0  0  0  0  0  0  0  0  0  0  0
   30.9774    2.1300    0.0000 H   0  0  0  0  0  0  0  0  0  0  0  0
   30.1803    2.1300    0.0000 H   0  0  0  0  0  0  0  0  0  0  0  0
   17.1899    0.6801    0.0000 H   0  0  0  0  0  0  0  0  0  0  0  0
   17.9870    0.6801    0.0000 H   0  0  0  0  0  0  0  0  0  0  0  0
   20.5851    2.1300    0.0000 H   0  0  0  0  0  0  0  0  0  0  0  0
   19.7880    2.1300    0.0000 H   0  0  0  0  0  0  0  0  0  0  0  0
    3.2646    2.1300    0.0000 H   0  0  0  0  0  0  0  0  0  0  0  0
    2.4675    2.1300    0.0000 H   0  0  0  0  0  0  0  0  0  0  0  0
   31.0463    0.6801    0.0000 H   0  0  0  0  0  0  0  0  0  0  0  0
   31.8434    0.6801    0.0000 H   0  0  0  0  0  0  0  0  0  0  0  0
   14.7783    0.2376    0.0000 H   0  0  0  0  0  0  0  0  0  0  0  0
   14.3798   -0.4527    0.0000 H   0  0  0  0  0  0  0  0  0  0  0  0
    1.6900    1.6919    0.0000 H   0  0  0  0  0  0  0  0  0  0  0  0
    1.4631    0.8450    0.0000 H   0  0  0  0  0  0  0  0  0  0  0  0
    2.3100    0.6181    0.0000 H   0  0  0  0  0  0  0  0  0  0  0  0
   32.6209    1.1181    0.0000 H   0  0  0  0  0  0  0  0  0  0  0  0
   32.8478    1.9650    0.0000 H   0  0  0  0  0  0  0  0  0  0  0  0
   32.0009    2.1919    0.0000 H   0  0  0  0  0  0  0  0  0  0  0  0
   14.4534   -1.6550    0.0000 H   0  0  0  0  0  0  0  0  0  0  0  0
  1 33  1  0  0  0  0
  1 38  1  0  0  0  0
  2 37  1  0  0  0  0
  2113  1  0  0  0  0
  3 38  2  0  0  0  0
  4 19  1  0  0  0  0
  4 28  1  0  0  0  0
  4 30  1  0  0  0  0
  5  6  1  0  0  0  0
  5  7  1  0  0  0  0
  5 41  1  0  0  0  0
  5 42  1  0  0  0  0
  6  8  1  0  0  0  0
  6 43  1  0  0  0  0
  6 44  1  0  0  0  0
  7  9  1  0  0  0  0
  7 45  1  0  0  0  0
  7 46  1  0  0  0  0
  8 10  1  0  0  0  0
  8 47  1  0  0  0  0
  8 48  1  0  0  0  0
  9 11  1  0  0  0  0
  9 49  1  0  0  0  0
  9 50  1  0  0  0  0
 10 12  1  0  0  0  0
 10 51  1  0  0  0  0
 10 52  1  0  0  0  0
 11 13  1  0  0  0  0
 11 53  1  0  0  0  0
 11 54  1  0  0  0  0
 12 14  1  0  0  0  0
 12 55  1  0  0  0  0
 12 56  1  0  0  0  0
 13 19  1  0  0  0  0
 13 57  1  0  0  0  0
 13 58  1  0  0  0  0
 14 21  1  0  0  0  0
 14 59  1  0  0  0  0
 14 60  1  0  0  0  0
 15 16  1  0  0  0  0
 15 17  1  0  0  0  0
 15 61  1  0  0  0  0
 15 62  1  0  0  0  0
 16 18  1  0  0  0  0
 16 63  1  0  0  0  0
 16 64  1  0  0  0  0
 17 20  1  0  0  0  0
 17 65  1  0  0  0  0
 17 66  1  0  0  0  0
 18 22  1  0  0  0  0
 18 67  1  0  0  0  0
 18 68  1  0  0  0  0
 19 69  1  0  0  0  0
 19 70  1  0  0  0  0
 20 23  1  0  0  0  0
 20 71  1  0  0  0  0
 20 72  1  0  0  0  0
 21 25  1  0  0  0  0
 21 75  1  0  0  0  0
 21 76  1  0  0  0  0
 22 24  1  0  0  0  0
 22 73  1  0  0  0  0
 22 74  1  0  0  0  0
 23 26  1  0  0  0  0
 23 77  1  0  0  0  0
 23 78  1  0  0  0  0
 24 27  1  0  0  0  0
 24 79  1  0  0  0  0
 24 80  1  0  0  0  0
 25 31  1  0  0  0  0
 25 81  1  0  0  0  0
 25 82  1  0  0  0  0
 26 29  1  0  0  0  0
 26 83  1  0  0  0  0
 26 84  1  0  0  0  0
 27 32  1  0  0  0  0
 27 85  1  0  0  0  0
 27 86  1  0  0  0  0
 28 33  1  0  0  0  0
 28 87  1  0  0  0  0
 28 88  1  0  0  0  0
 29 34  1  0  0  0  0
 29 89  1  0  0  0  0
 29 90  1  0  0  0  0
 30 37  1  0  0  0  0
 30 91  1  0  0  0  0
 30 92  1  0  0  0  0
 31 35  1  0  0  0  0
 31 93  1  0  0  0  0
 31 94  1  0  0  0  0
 32 36  1  0  0  0  0
 32 95  1  0  0  0  0
 32 96  1  0  0  0  0
 33 97  1  0  0  0  0
 33 98  1  0  0  0  0
 34 38  1  0  0  0  0
 34 99  1  0  0  0  0
 34100  1  0  0  0  0
 35 39  1  0  0  0  0
 35101  1  0  0  0  0
 35102  1  0  0  0  0
 36 40  1  0  0  0  0
 36103  1  0  0  0  0
 36104  1  0  0  0  0
 37105  1  0  0  0  0
 37106  1  0  0  0  0
 39107  1  0  0  0  0
 39108  1  0  0  0  0
 39109  1  0  0  0  0
 40110  1  0  0  0  0
 40111  1  0  0  0  0
 40112  1  0  0  0  0
M  END
> <PUBCHEM_COMPOUND_CID>
71404952

> <PUBCHEM_COMPOUND_CANONICALIZED>
1

> <PUBCHEM_CACTVS_COMPLEXITY>
485

> <PUBCHEM_CACTVS_HBOND_ACCEPTOR>
4

> <PUBCHEM_CACTVS_HBOND_DONOR>
1

> <PUBCHEM_CACTVS_ROTATABLE_BOND>
35

> <PUBCHEM_CACTVS_SUBSKEYS>
AAADcfB+MAAAAAAAAAAAAAAAAAAAAAAAAAAAAAAAAAAAAAAAAAAAHgAACAAACADhgAYCCAMABgAIAACQCAAAAAAAAAAAAAEIAAACEBIAgAAHAAAEAACQAAGYyKCAAAAAAAAAAAAAAAAAAAAAAAAAAAAAAA==

> <PUBCHEM_IUPAC_OPENEYE_NAME>
2-[hexadecyl(2-hydroxyethyl)amino]ethyl hexadecanoate

> <PUBCHEM_IUPAC_CAS_NAME>
hexadecanoic acid 2-[hexadecyl(2-hydroxyethyl)amino]ethyl ester

> <PUBCHEM_IUPAC_NAME_MARKUP>
2-[hexadecyl(2-hydroxyethyl)amino]ethyl hexadecanoate

> <PUBCHEM_IUPAC_NAME>
2-[hexadecyl(2-hydroxyethyl)amino]ethyl hexadecanoate

> <PUBCHEM_IUPAC_SYSTEMATIC_NAME>
2-[hexadecyl(2-hydroxyethyl)amino]ethyl hexadecanoate

> <PUBCHEM_IUPAC_TRADITIONAL_NAME>
palmitic acid 2-[cetyl(2-hydroxyethyl)amino]ethyl ester

> <PUBCHEM_IUPAC_INCHI>
InChI=1S/C36H73NO3/c1-3-5-7-9-11-13-15-17-19-21-23-25-27-29-31-37(32-34-38)33-35-40-36(39)30-28-26-24-22-20-18-16-14-12-10-8-6-4-2/h38H,3-35H2,1-2H3

> <PUBCHEM_IUPAC_INCHIKEY>
NCKRTNVOXUIHFY-UHFFFAOYSA-N

> <PUBCHEM_XLOGP3_AA>
14.5

> <PUBCHEM_EXACT_MASS>
567.55904519

> <PUBCHEM_MOLECULAR_FORMULA>
C36H73NO3

> <PUBCHEM_MOLECULAR_WEIGHT>
568.0

> <PUBCHEM_SMILES>
CCCCCCCCCCCCCCCCN(CCO)CCOC(=O)CCCCCCCCCCCCCCC

> <PUBCHEM_CONNECTIVITY_SMILES>
CCCCCCCCCCCCCCCCN(CCO)CCOC(=O)CCCCCCCCCCCCCCC

> <PUBCHEM_CACTVS_TPSA>
49.8

> <PUBCHEM_MONOISOTOPIC_WEIGHT>
567.55904519

> <PUBCHEM_TOTAL_CHARGE>
0

> <PUBCHEM_HEAVY_ATOM_COUNT>
40

> <PUBCHEM_ATOM_DEF_STEREO_COUNT>
0

> <PUBCHEM_ATOM_UDEF_STEREO_COUNT>
0

> <PUBCHEM_BOND_DEF_STEREO_COUNT>
0

> <PUBCHEM_BOND_UDEF_STEREO_COUNT>
0

> <PUBCHEM_ISOTOPIC_ATOM_COUNT>
0

> <PUBCHEM_COMPONENT_COUNT>
1

> <PUBCHEM_CACTVS_TAUTO_COUNT>
-1

> <PUBCHEM_COORDINATE_TYPE>
1
5
255

$$$$
