71433693
  -OEChem-05122609442D

114113  0     1  0  0  0  0  0999 V2000
   21.0526   -0.0950    0.0000 O   0  0  0  0  0  0  0  0  0  0  0  0
   17.5885   -0.0950    0.0000 O   0  0  0  0  0  0  0  0  0  0  0  0
   21.9186    1.4050    0.0000 O   0  0  0  0  0  0  0  0  0  0  0  0
   19.3205   -1.0950    0.0000 O   0  0  0  0  0  0  0  0  0  0  0  0
   16.7224    1.4050    0.0000 O   0  0  0  0  0  0  0  0  0  0  0  0
   33.1769   -0.0950    0.0000 C   0  0  0  0  0  0  0  0  0  0  0  0
   32.3109    0.4050    0.0000 C   0  0  0  0  0  0  0  0  0  0  0  0
   26.2487   -0.0950    0.0000 C   0  0  0  0  0  0  0  0  0  0  0  0
   25.3827    0.4050    0.0000 C   0  0  0  0  0  0  0  0  0  0  0  0
   34.0429    0.4050    0.0000 C   0  0  0  0  0  0  0  0  0  0  0  0
   31.4449   -0.0950    0.0000 C   0  0  0  0  0  0  0  0  0  0  0  0
   27.1147    0.4050    0.0000 C   0  0  0  0  0  0  0  0  0  0  0  0
   24.5167   -0.0950    0.0000 C   0  0  0  0  0  0  0  0  0  0  0  0
   34.9090   -0.0950    0.0000 C   0  0  0  0  0  0  0  0  0  0  0  0
   13.2583    0.4050    0.0000 C   0  0  0  0  0  0  0  0  0  0  0  0
   30.5788    0.4050    0.0000 C   0  0  0  0  0  0  0  0  0  0  0  0
   27.9808   -0.0950    0.0000 C   0  0  0  0  0  0  0  0  0  0  0  0
   23.6506    0.4050    0.0000 C   0  0  0  0  0  0  0  0  0  0  0  0
   12.3923   -0.0950    0.0000 C   0  0  0  0  0  0  0  0  0  0  0  0
   14.1244   -0.0950    0.0000 C   0  0  0  0  0  0  0  0  0  0  0  0
   11.5263    0.4050    0.0000 C   0  0  0  0  0  0  0  0  0  0  0  0
   14.9904    0.4050    0.0000 C   0  0  0  0  0  0  0  0  0  0  0  0
   35.7750    0.4050    0.0000 C   0  0  0  0  0  0  0  0  0  0  0  0
   29.7128   -0.0950    0.0000 C   0  0  0  0  0  0  0  0  0  0  0  0
   28.8468    0.4050    0.0000 C   0  0  0  0  0  0  0  0  0  0  0  0
   22.7846   -0.0950    0.0000 C   0  0  0  0  0  0  0  0  0  0  0  0
   10.6603   -0.0950    0.0000 C   0  0  0  0  0  0  0  0  0  0  0  0
   15.8564   -0.0950    0.0000 C   0  0  0  0  0  0  0  0  0  0  0  0
   36.6410   -0.0950    0.0000 C   0  0  0  0  0  0  0  0  0  0  0  0
   21.9186    0.4050    0.0000 C   0  0  0  0  0  0  0  0  0  0  0  0
    9.7942    0.4050    0.0000 C   0  0  0  0  0  0  0  0  0  0  0  0
   16.7224    0.4050    0.0000 C   0  0  0  0  0  0  0  0  0  0  0  0
   19.3205   -0.0950    0.0000 C   0  0  3  0  0  0  0  0  0  0  0  0
   20.1865    0.4050    0.0000 C   0  0  0  0  0  0  0  0  0  0  0  0
   18.4545    0.4050    0.0000 C   0  0  0  0  0  0  0  0  0  0  0  0
    8.9282   -0.0950    0.0000 C   0  0  0  0  0  0  0  0  0  0  0  0
    8.0622    0.4050    0.0000 C   0  0  0  0  0  0  0  0  0  0  0  0
    4.5981    0.4050    0.0000 C   0  0  0  0  0  0  0  0  0  0  0  0
    3.7320   -0.0950    0.0000 C   0  0  0  0  0  0  0  0  0  0  0  0
    5.4641   -0.0950    0.0000 C   0  0  0  0  0  0  0  0  0  0  0  0
    2.8660    0.4050    0.0000 C   0  0  0  0  0  0  0  0  0  0  0  0
    7.1962   -0.0950    0.0000 C   0  0  0  0  0  0  0  0  0  0  0  0
    6.3301    0.4050    0.0000 C   0  0  0  0  0  0  0  0  0  0  0  0
    2.0000   -0.0950    0.0000 C   0  0  0  0  0  0  0  0  0  0  0  0
   32.7784   -0.5699    0.0000 H   0  0  0  0  0  0  0  0  0  0  0  0
   33.5754   -0.5699    0.0000 H   0  0  0  0  0  0  0  0  0  0  0  0
   32.7094    0.8799    0.0000 H   0  0  0  0  0  0  0  0  0  0  0  0
   31.9124    0.8799    0.0000 H   0  0  0  0  0  0  0  0  0  0  0  0
   25.8502   -0.5699    0.0000 H   0  0  0  0  0  0  0  0  0  0  0  0
   26.6472   -0.5699    0.0000 H   0  0  0  0  0  0  0  0  0  0  0  0
   25.7812    0.8799    0.0000 H   0  0  0  0  0  0  0  0  0  0  0  0
   24.9842    0.8799    0.0000 H   0  0  0  0  0  0  0  0  0  0  0  0
   34.4415    0.8799    0.0000 H   0  0  0  0  0  0  0  0  0  0  0  0
   33.6444    0.8799    0.0000 H   0  0  0  0  0  0  0  0  0  0  0  0
   31.0463   -0.5699    0.0000 H   0  0  0  0  0  0  0  0  0  0  0  0
   31.8434   -0.5699    0.0000 H   0  0  0  0  0  0  0  0  0  0  0  0
   27.5133    0.8799    0.0000 H   0  0  0  0  0  0  0  0  0  0  0  0
   26.7162    0.8799    0.0000 H   0  0  0  0  0  0  0  0  0  0  0  0
   24.1181   -0.5699    0.0000 H   0  0  0  0  0  0  0  0  0  0  0  0
   24.9152   -0.5699    0.0000 H   0  0  0  0  0  0  0  0  0  0  0  0
   34.5104   -0.5699    0.0000 H   0  0  0  0  0  0  0  0  0  0  0  0
   35.3075   -0.5699    0.0000 H   0  0  0  0  0  0  0  0  0  0  0  0
   13.6569    0.8799    0.0000 H   0  0  0  0  0  0  0  0  0  0  0  0
   12.8598    0.8799    0.0000 H   0  0  0  0  0  0  0  0  0  0  0  0
   30.9774    0.8799    0.0000 H   0  0  0  0  0  0  0  0  0  0  0  0
   30.1803    0.8799    0.0000 H   0  0  0  0  0  0  0  0  0  0  0  0
   27.5822   -0.5699    0.0000 H   0  0  0  0  0  0  0  0  0  0  0  0
   28.3793   -0.5699    0.0000 H   0  0  0  0  0  0  0  0  0  0  0  0
   24.0492    0.8799    0.0000 H   0  0  0  0  0  0  0  0  0  0  0  0
   23.2521    0.8799    0.0000 H   0  0  0  0  0  0  0  0  0  0  0  0
   11.9938   -0.5699    0.0000 H   0  0  0  0  0  0  0  0  0  0  0  0
   12.7908   -0.5699    0.0000 H   0  0  0  0  0  0  0  0  0  0  0  0
   13.7258   -0.5699    0.0000 H   0  0  0  0  0  0  0  0  0  0  0  0
   14.5229   -0.5699    0.0000 H   0  0  0  0  0  0  0  0  0  0  0  0
   11.9248    0.8799    0.0000 H   0  0  0  0  0  0  0  0  0  0  0  0
   11.1278    0.8799    0.0000 H   0  0  0  0  0  0  0  0  0  0  0  0
   15.3889    0.8799    0.0000 H   0  0  0  0  0  0  0  0  0  0  0  0
   14.5919    0.8799    0.0000 H   0  0  0  0  0  0  0  0  0  0  0  0
   36.1735    0.8799    0.0000 H   0  0  0  0  0  0  0  0  0  0  0  0
   35.3765    0.8799    0.0000 H   0  0  0  0  0  0  0  0  0  0  0  0
   29.7128   -0.7150    0.0000 H   0  0  0  0  0  0  0  0  0  0  0  0
   28.8468    1.0250    0.0000 H   0  0  0  0  0  0  0  0  0  0  0  0
   22.3861   -0.5699    0.0000 H   0  0  0  0  0  0  0  0  0  0  0  0
   23.1831   -0.5699    0.0000 H   0  0  0  0  0  0  0  0  0  0  0  0
   10.2617   -0.5699    0.0000 H   0  0  0  0  0  0  0  0  0  0  0  0
   11.0588   -0.5699    0.0000 H   0  0  0  0  0  0  0  0  0  0  0  0
   15.4579   -0.5699    0.0000 H   0  0  0  0  0  0  0  0  0  0  0  0
   16.2549   -0.5699    0.0000 H   0  0  0  0  0  0  0  0  0  0  0  0
   36.3310   -0.6319    0.0000 H   0  0  0  0  0  0  0  0  0  0  0  0
   37.1780   -0.4050    0.0000 H   0  0  0  0  0  0  0  0  0  0  0  0
   36.9510    0.4419    0.0000 H   0  0  0  0  0  0  0  0  0  0  0  0
    9.7942    1.0250    0.0000 H   0  0  0  0  0  0  0  0  0  0  0  0
   19.8574   -0.4050    0.0000 H   0  0  0  0  0  0  0  0  0  0  0  0
   20.5851    0.8799    0.0000 H   0  0  0  0  0  0  0  0  0  0  0  0
   19.7880    0.8799    0.0000 H   0  0  0  0  0  0  0  0  0  0  0  0
   18.8530    0.8799    0.0000 H   0  0  0  0  0  0  0  0  0  0  0  0
   18.0560    0.8799    0.0000 H   0  0  0  0  0  0  0  0  0  0  0  0
    8.9282   -0.7150    0.0000 H   0  0  0  0  0  0  0  0  0  0  0  0
    8.4607    0.8799    0.0000 H   0  0  0  0  0  0  0  0  0  0  0  0
    7.6636    0.8799    0.0000 H   0  0  0  0  0  0  0  0  0  0  0  0
    4.9966    0.8799    0.0000 H   0  0  0  0  0  0  0  0  0  0  0  0
    4.1996    0.8799    0.0000 H   0  0  0  0  0  0  0  0  0  0  0  0
    3.3335   -0.5699    0.0000 H   0  0  0  0  0  0  0  0  0  0  0  0
    4.1306   -0.5699    0.0000 H   0  0  0  0  0  0  0  0  0  0  0  0
    5.0656   -0.5699    0.0000 H   0  0  0  0  0  0  0  0  0  0  0  0
    5.8626   -0.5699    0.0000 H   0  0  0  0  0  0  0  0  0  0  0  0
    3.2646    0.8799    0.0000 H   0  0  0  0  0  0  0  0  0  0  0  0
    2.4675    0.8799    0.0000 H   0  0  0  0  0  0  0  0  0  0  0  0
    7.1962   -0.7150    0.0000 H   0  0  0  0  0  0  0  0  0  0  0  0
    6.3301    1.0250    0.0000 H   0  0  0  0  0  0  0  0  0  0  0  0
   18.7836   -1.4050    0.0000 H   0  0  0  0  0  0  0  0  0  0  0  0
    1.6900    0.4419    0.0000 H   0  0  0  0  0  0  0  0  0  0  0  0
    1.4631   -0.4050    0.0000 H   0  0  0  0  0  0  0  0  0  0  0  0
    2.3100   -0.6319    0.0000 H   0  0  0  0  0  0  0  0  0  0  0  0
  1 30  1  0  0  0  0
  1 34  1  0  0  0  0
  2 32  1  0  0  0  0
  2 35  1  0  0  0  0
  3 30  2  0  0  0  0
  4 33  1  0  0  0  0
  4111  1  0  0  0  0
  5 32  2  0  0  0  0
  6  7  1  0  0  0  0
  6 10  1  0  0  0  0
  6 45  1  0  0  0  0
  6 46  1  0  0  0  0
  7 11  1  0  0  0  0
  7 47  1  0  0  0  0
  7 48  1  0  0  0  0
  8  9  1  0  0  0  0
  8 12  1  0  0  0  0
  8 49  1  0  0  0  0
  8 50  1  0  0  0  0
  9 13  1  0  0  0  0
  9 51  1  0  0  0  0
  9 52  1  0  0  0  0
 10 14  1  0  0  0  0
 10 53  1  0  0  0  0
 10 54  1  0  0  0  0
 11 16  1  0  0  0  0
 11 55  1  0  0  0  0
 11 56  1  0  0  0  0
 12 17  1  0  0  0  0
 12 57  1  0  0  0  0
 12 58  1  0  0  0  0
 13 18  1  0  0  0  0
 13 59  1  0  0  0  0
 13 60  1  0  0  0  0
 14 23  1  0  0  0  0
 14 61  1  0  0  0  0
 14 62  1  0  0  0  0
 15 19  1  0  0  0  0
 15 20  1  0  0  0  0
 15 63  1  0  0  0  0
 15 64  1  0  0  0  0
 16 24  1  0  0  0  0
 16 65  1  0  0  0  0
 16 66  1  0  0  0  0
 17 25  1  0  0  0  0
 17 67  1  0  0  0  0
 17 68  1  0  0  0  0
 18 26  1  0  0  0  0
 18 69  1  0  0  0  0
 18 70  1  0  0  0  0
 19 21  1  0  0  0  0
 19 71  1  0  0  0  0
 19 72  1  0  0  0  0
 20 22  1  0  0  0  0
 20 73  1  0  0  0  0
 20 74  1  0  0  0  0
 21 27  1  0  0  0  0
 21 75  1  0  0  0  0
 21 76  1  0  0  0  0
 22 28  1  0  0  0  0
 22 77  1  0  0  0  0
 22 78  1  0  0  0  0
 23 29  1  0  0  0  0
 23 79  1  0  0  0  0
 23 80  1  0  0  0  0
 24 25  2  3  0  0  0
 24 81  1  0  0  0  0
 25 82  1  0  0  0  0
 26 30  1  0  0  0  0
 26 83  1  0  0  0  0
 26 84  1  0  0  0  0
 27 31  1  0  0  0  0
 27 85  1  0  0  0  0
 27 86  1  0  0  0  0
 28 32  1  0  0  0  0
 28 87  1  0  0  0  0
 28 88  1  0  0  0  0
 29 89  1  0  0  0  0
 29 90  1  0  0  0  0
 29 91  1  0  0  0  0
 31 36  2  3  0  0  0
 31 92  1  0  0  0  0
 33 34  1  0  0  0  0
 33 35  1  0  0  0  0
 33 93  1  0  0  0  0
 34 94  1  0  0  0  0
 34 95  1  0  0  0  0
 35 96  1  0  0  0  0
 35 97  1  0  0  0  0
 36 37  1  0  0  0  0
 36 98  1  0  0  0  0
 37 42  1  0  0  0  0
 37 99  1  0  0  0  0
 37100  1  0  0  0  0
 38 39  1  0  0  0  0
 38 40  1  0  0  0  0
 38101  1  0  0  0  0
 38102  1  0  0  0  0
 39 41  1  0  0  0  0
 39103  1  0  0  0  0
 39104  1  0  0  0  0
 40 43  1  0  0  0  0
 40105  1  0  0  0  0
 40106  1  0  0  0  0
 41 44  1  0  0  0  0
 41107  1  0  0  0  0
 41108  1  0  0  0  0
 42 43  2  3  0  0  0
 42109  1  0  0  0  0
 43110  1  0  0  0  0
 44112  1  0  0  0  0
 44113  1  0  0  0  0
 44114  1  0  0  0  0
M  END
> <PUBCHEM_COMPOUND_CID>
71433693

> <PUBCHEM_COMPOUND_CANONICALIZED>
1

> <PUBCHEM_CACTVS_COMPLEXITY>
711

> <PUBCHEM_CACTVS_HBOND_ACCEPTOR>
5

> <PUBCHEM_CACTVS_HBOND_DONOR>
1

> <PUBCHEM_CACTVS_ROTATABLE_BOND>
35

> <PUBCHEM_CACTVS_SUBSKEYS>
AAADcfB8OAAAAAAAAAAAAAAAAAAAAAAAAAAAAAAAAAAAAAAAAAAAGgAACAAACBSggAICCAAABgCIACDSCAAAAAAgAAAICAEAAAgBEBIAAQACAAAFgAALAAOIyKCAAAAAAAAAAAAAAAAAAAAAAAAAAAAAAA==

> <PUBCHEM_IUPAC_OPENEYE_NAME>
(2-hydroxy-3-octadeca-9,12-dienoyloxy-propyl) octadec-9-enoate

> <PUBCHEM_IUPAC_CAS_NAME>
9-octadecenoic acid [2-hydroxy-3-(1-oxooctadeca-9,12-dienoxy)propyl] ester

> <PUBCHEM_IUPAC_NAME_MARKUP>
(2-hydroxy-3-octadeca-9,12-dienoyloxypropyl) octadec-9-enoate

> <PUBCHEM_IUPAC_NAME>
(2-hydroxy-3-octadeca-9,12-dienoyloxypropyl) octadec-9-enoate

> <PUBCHEM_IUPAC_SYSTEMATIC_NAME>
(3-octadeca-9,12-dienoyloxy-2-oxidanyl-propyl) octadec-9-enoate

> <PUBCHEM_IUPAC_TRADITIONAL_NAME>
octadec-9-enoic acid (2-hydroxy-3-octadeca-9,12-dienoyloxy-propyl) ester

> <PUBCHEM_IUPAC_INCHI>
InChI=1S/C39H70O5/c1-3-5-7-9-11-13-15-17-19-21-23-25-27-29-31-33-38(41)43-35-37(40)36-44-39(42)34-32-30-28-26-24-22-20-18-16-14-12-10-8-6-4-2/h11,13,17-20,37,40H,3-10,12,14-16,21-36H2,1-2H3

> <PUBCHEM_IUPAC_INCHIKEY>
GREDRAMJRDQWEJ-UHFFFAOYSA-N

> <PUBCHEM_XLOGP3_AA>
13.7

> <PUBCHEM_EXACT_MASS>
618.52232533

> <PUBCHEM_MOLECULAR_FORMULA>
C39H70O5

> <PUBCHEM_MOLECULAR_WEIGHT>
619.0

> <PUBCHEM_SMILES>
CCCCCCCCC=CCCCCCCCC(=O)OCC(COC(=O)CCCCCCCC=CCC=CCCCCC)O

> <PUBCHEM_CONNECTIVITY_SMILES>
CCCCCCCCC=CCCCCCCCC(=O)OCC(COC(=O)CCCCCCCC=CCC=CCCCCC)O

> <PUBCHEM_CACTVS_TPSA>
72.8

> <PUBCHEM_MONOISOTOPIC_WEIGHT>
618.52232533

> <PUBCHEM_TOTAL_CHARGE>
0

> <PUBCHEM_HEAVY_ATOM_COUNT>
44

> <PUBCHEM_ATOM_DEF_STEREO_COUNT>
0

> <PUBCHEM_ATOM_UDEF_STEREO_COUNT>
1

> <PUBCHEM_BOND_DEF_STEREO_COUNT>
0

> <PUBCHEM_BOND_UDEF_STEREO_COUNT>
3

> <PUBCHEM_ISOTOPIC_ATOM_COUNT>
0

> <PUBCHEM_COMPONENT_COUNT>
1

> <PUBCHEM_CACTVS_TAUTO_COUNT>
-1

> <PUBCHEM_COORDINATE_TYPE>
1
5
255

> <PUBCHEM_BONDANNOTATIONS>
24  25  1
31  36  1
33  4  3
42  43  1

$$$$
