71587168
  -OEChem-05122609582D

128108  0     0  0  0  0  0  0999 V2000
    2.5093    5.3834    0.0000 Si  0  0  0  0  0  0  0  0  0  0  0  0
    3.3454    3.9351    0.0000 Si  0  0  0  0  0  0  0  0  0  0  0  0
    1.6730    3.9351    0.0000 Si  0  0  0  0  0  0  0  0  0  0  0  0
    1.8182    3.5000    0.0000 Si  0  0  0  0  0  0  0  0  0  0  0  0
   20.6669    7.3251    0.0000 Si  0  0  0  0  0  0  0  0  0  0  0  0
   21.5031    5.8768    0.0000 Si  0  0  0  0  0  0  0  0  0  0  0  0
   19.8307    5.8768    0.0000 Si  0  0  0  0  0  0  0  0  0  0  0  0
   19.9758    5.4417    0.0000 Si  0  0  0  0  0  0  0  0  0  0  0  0
   13.7781    5.8768    0.0000 Si  0  0  0  0  0  0  0  0  0  0  0  0
   13.9233    5.4417    0.0000 Si  0  0  0  0  0  0  0  0  0  0  0  0
   14.6143    7.3251    0.0000 Si  0  0  0  0  0  0  0  0  0  0  0  0
   15.4505    5.8768    0.0000 Si  0  0  0  0  0  0  0  0  0  0  0  0
    7.8707    1.0000    0.0000 Si  0  0  0  0  0  0  0  0  0  0  0  0
    8.5618    2.8834    0.0000 Si  0  0  0  0  0  0  0  0  0  0  0  0
    9.3980    1.4351    0.0000 Si  0  0  0  0  0  0  0  0  0  0  0  0
    7.7256    1.4351    0.0000 Si  0  0  0  0  0  0  0  0  0  0  0  0
    7.8707    7.3834    0.0000 Si  0  0  0  0  0  0  0  0  0  0  0  0
    8.5618    9.2668    0.0000 Si  0  0  0  0  0  0  0  0  0  0  0  0
    9.3980    7.8185    0.0000 Si  0  0  0  0  0  0  0  0  0  0  0  0
    7.7256    7.8185    0.0000 Si  0  0  0  0  0  0  0  0  0  0  0  0
    1.8182    9.8834    0.0000 Si  0  0  0  0  0  0  0  0  0  0  0  0
    2.5092   11.7668    0.0000 Si  0  0  0  0  0  0  0  0  0  0  0  0
    3.3454   10.3185    0.0000 Si  0  0  0  0  0  0  0  0  0  0  0  0
    1.6730   10.3185    0.0000 Si  0  0  0  0  0  0  0  0  0  0  0  0
    9.4278   10.7668    0.0000 Mg  0  2  0  0  0  0  0  0  0  0  0  0
    3.3753    6.8834    0.0000 Mg  0  2  0  0  0  0  0  0  0  0  0  0
    0.0000    4.3834    0.0000 Mg  0  2  0  0  0  0  0  0  0  0  0  0
    9.4278    4.3834    0.0000 Mg  0  2  0  0  0  0  0  0  0  0  0  0
    6.0525    1.8834    0.0000 Mg  0  2  0  0  0  0  0  0  0  0  0  0
   15.4804    8.8251    0.0000 Mg  0  2  0  0  0  0  0  0  0  0  0  0
   12.1051    6.3251    0.0000 Mg  0  2  0  0  0  0  0  0  0  0  0  0
    3.3753   13.2668    0.0000 Mg  0  2  0  0  0  0  0  0  0  0  0  0
    0.0000   10.7668    0.0000 Mg  0  2  0  0  0  0  0  0  0  0  0  0
   18.1576    6.3251    0.0000 Mg  0  2  0  0  0  0  0  0  0  0  0  0
    6.0525    8.2668    0.0000 Mg  0  2  0  0  0  0  0  0  0  0  0  0
   14.1314   10.8251    0.0000 Mg  0  2  0  0  0  0  0  0  0  0  0  0
   20.1839   10.8251    0.0000 Mg  0  2  0  0  0  0  0  0  0  0  0  0
    2.0263   15.2668    0.0000 Mg  0  2  0  0  0  0  0  0  0  0  0  0
    8.0788   12.7668    0.0000 Mg  0  2  0  0  0  0  0  0  0  0  0  0
   21.5329    8.8251    0.0000 Mg  0  2  0  0  0  0  0  0  0  0  0  0
   13.4299   13.3251    0.0000 Na  0  3  0  0  0  0  0  0  0  0  0  0
   19.4824   13.3251    0.0000 Na  0  3  0  0  0  0  0  0  0  0  0  0
    3.3454    4.9006    0.0000 O   0  0  0  0  0  0  0  0  0  0  0  0
    1.6730    4.9006    0.0000 O   0  0  0  0  0  0  0  0  0  0  0  0
    1.8182    4.5453    0.0000 O   0  0  0  0  0  0  0  0  0  0  0  0
    2.5093    3.6323    0.0000 O   0  0  0  0  0  0  0  0  0  0  0  0
    2.7238    3.0232    0.0000 O   0  0  0  0  0  0  0  0  0  0  0  0
    0.8362    3.4523    0.0000 O   0  0  0  0  0  0  0  0  0  0  0  0
   21.5031    6.8424    0.0000 O   0  0  0  0  0  0  0  0  0  0  0  0
   19.8307    6.8424    0.0000 O   0  0  0  0  0  0  0  0  0  0  0  0
   19.9758    6.4870    0.0000 O   0  0  0  0  0  0  0  0  0  0  0  0
   20.6669    5.5740    0.0000 O   0  0  0  0  0  0  0  0  0  0  0  0
   20.8814    4.9649    0.0000 O   0  0  0  0  0  0  0  0  0  0  0  0
   18.9939    5.3940    0.0000 O   0  0  0  0  0  0  0  0  0  0  0  0
   12.9413    5.3940    0.0000 O   0  0  0  0  0  0  0  0  0  0  0  0
   13.7781    6.8424    0.0000 O   0  0  0  0  0  0  0  0  0  0  0  0
   14.6143    5.5740    0.0000 O   0  0  0  0  0  0  0  0  0  0  0  0
   13.9233    6.4870    0.0000 O   0  0  0  0  0  0  0  0  0  0  0  0
   14.8289    4.9649    0.0000 O   0  0  0  0  0  0  0  0  0  0  0  0
   15.4505    6.8424    0.0000 O   0  0  0  0  0  0  0  0  0  0  0  0
    7.8707    2.0453    0.0000 O   0  0  0  0  0  0  0  0  0  0  0  0
    8.7764    0.5232    0.0000 O   0  0  0  0  0  0  0  0  0  0  0  0
    6.8888    0.9523    0.0000 O   0  0  0  0  0  0  0  0  0  0  0  0
    9.3980    2.4006    0.0000 O   0  0  0  0  0  0  0  0  0  0  0  0
    7.7256    2.4006    0.0000 O   0  0  0  0  0  0  0  0  0  0  0  0
    8.5618    1.1323    0.0000 O   0  0  0  0  0  0  0  0  0  0  0  0
    7.8707    8.4287    0.0000 O   0  0  0  0  0  0  0  0  0  0  0  0
    8.7764    6.9066    0.0000 O   0  0  0  0  0  0  0  0  0  0  0  0
    6.8888    7.3358    0.0000 O   0  0  0  0  0  0  0  0  0  0  0  0
    9.3980    8.7841    0.0000 O   0  0  0  0  0  0  0  0  0  0  0  0
    7.7256    8.7841    0.0000 O   0  0  0  0  0  0  0  0  0  0  0  0
    8.5618    7.5158    0.0000 O   0  0  0  0  0  0  0  0  0  0  0  0
    1.8182   10.9287    0.0000 O   0  0  0  0  0  0  0  0  0  0  0  0
    2.7238    9.4066    0.0000 O   0  0  0  0  0  0  0  0  0  0  0  0
    0.8362    9.8358    0.0000 O   0  0  0  0  0  0  0  0  0  0  0  0
    3.3454   11.2841    0.0000 O   0  0  0  0  0  0  0  0  0  0  0  0
    1.6730   11.2841    0.0000 O   0  0  0  0  0  0  0  0  0  0  0  0
    2.5092   10.0158    0.0000 O   0  0  0  0  0  0  0  0  0  0  0  0
    2.5092    6.3834    0.0000 O   0  5  0  0  0  0  0  0  0  0  0  0
    4.0525    3.2280    0.0000 O   0  5  0  0  0  0  0  0  0  0  0  0
    0.9659    4.6422    0.0000 O   0  5  0  0  0  0  0  0  0  0  0  0
    1.8181    2.5000    0.0000 O   0  5  0  0  0  0  0  0  0  0  0  0
   20.6669    8.3251    0.0000 O   0  5  0  0  0  0  0  0  0  0  0  0
   22.2102    5.1697    0.0000 O   0  5  0  0  0  0  0  0  0  0  0  0
   19.1236    6.5839    0.0000 O   0  5  0  0  0  0  0  0  0  0  0  0
   19.9757    4.4417    0.0000 O   0  5  0  0  0  0  0  0  0  0  0  0
   13.0710    6.5839    0.0000 O   0  5  0  0  0  0  0  0  0  0  0  0
   13.9232    4.4417    0.0000 O   0  5  0  0  0  0  0  0  0  0  0  0
   14.6143    8.3251    0.0000 O   0  5  0  0  0  0  0  0  0  0  0  0
   16.1576    5.1697    0.0000 O   0  5  0  0  0  0  0  0  0  0  0  0
    7.8706    0.0000    0.0000 O   0  5  0  0  0  0  0  0  0  0  0  0
    8.5618    3.8834    0.0000 O   0  5  0  0  0  0  0  0  0  0  0  0
   10.1051    0.7280    0.0000 O   0  5  0  0  0  0  0  0  0  0  0  0
    7.0185    2.1422    0.0000 O   0  5  0  0  0  0  0  0  0  0  0  0
    7.8706    6.3834    0.0000 O   0  5  0  0  0  0  0  0  0  0  0  0
    8.5618   10.2668    0.0000 O   0  5  0  0  0  0  0  0  0  0  0  0
   10.1051    7.1114    0.0000 O   0  5  0  0  0  0  0  0  0  0  0  0
    7.0185    8.5256    0.0000 O   0  5  0  0  0  0  0  0  0  0  0  0
    1.8181    8.8834    0.0000 O   0  5  0  0  0  0  0  0  0  0  0  0
    2.5092   12.7668    0.0000 O   0  5  0  0  0  0  0  0  0  0  0  0
    4.0525    9.6114    0.0000 O   0  5  0  0  0  0  0  0  0  0  0  0
    0.9659   11.0256    0.0000 O   0  5  0  0  0  0  0  0  0  0  0  0
    1.1603   15.7668    0.0000 O   0  5  0  0  0  0  0  0  0  0  0  0
   14.9974   11.3251    0.0000 O   0  5  0  0  0  0  0  0  0  0  0  0
   13.2653   11.3251    0.0000 O   0  5  0  0  0  0  0  0  0  0  0  0
   21.0499   11.3251    0.0000 O   0  5  0  0  0  0  0  0  0  0  0  0
   19.3179   11.3251    0.0000 O   0  5  0  0  0  0  0  0  0  0  0  0
    2.8923   15.7668    0.0000 O   0  5  0  0  0  0  0  0  0  0  0  0
    7.2128   13.2668    0.0000 O   0  5  0  0  0  0  0  0  0  0  0  0
   14.2959   13.8251    0.0000 O   0  5  0  0  0  0  0  0  0  0  0  0
   20.3484   13.8251    0.0000 O   0  5  0  0  0  0  0  0  0  0  0  0
    7.9143   15.2668    0.0000 O   0  5  0  0  0  0  0  0  0  0  0  0
    7.9143   17.7668    0.0000 O   0  5  0  0  0  0  0  0  0  0  0  0
    8.9448   13.2668    0.0000 O   0  5  0  0  0  0  0  0  0  0  0  0
    8.7803   15.7668    0.0000 Li  0  3  0  0  0  0  0  0  0  0  0  0
    8.7803   18.2668    0.0000 Li  0  3  0  0  0  0  0  0  0  0  0  0
    0.6233   15.4568    0.0000 H   0  0  0  0  0  0  0  0  0  0  0  0
   15.5343   11.0151    0.0000 H   0  0  0  0  0  0  0  0  0  0  0  0
   12.7284   11.0151    0.0000 H   0  0  0  0  0  0  0  0  0  0  0  0
   21.5869   11.0151    0.0000 H   0  0  0  0  0  0  0  0  0  0  0  0
   18.7809   11.0151    0.0000 H   0  0  0  0  0  0  0  0  0  0  0  0
    3.4292   15.4568    0.0000 H   0  0  0  0  0  0  0  0  0  0  0  0
    6.6759   12.9568    0.0000 H   0  0  0  0  0  0  0  0  0  0  0  0
   14.8328   13.5151    0.0000 H   0  0  0  0  0  0  0  0  0  0  0  0
   20.8854   13.5151    0.0000 H   0  0  0  0  0  0  0  0  0  0  0  0
    7.3773   15.5768    0.0000 H   0  0  0  0  0  0  0  0  0  0  0  0
    7.3773   18.0768    0.0000 H   0  0  0  0  0  0  0  0  0  0  0  0
    9.4818   12.9568    0.0000 H   0  0  0  0  0  0  0  0  0  0  0  0
  1 43  1  0  0  0  0
  1 44  1  0  0  0  0
  1 45  1  0  0  0  0
  1 79  1  0  0  0  0
  2 43  1  0  0  0  0
  2 46  1  0  0  0  0
  2 47  1  0  0  0  0
  2 80  1  0  0  0  0
  3 44  1  0  0  0  0
  3 46  1  0  0  0  0
  3 48  1  0  0  0  0
  3 81  1  0  0  0  0
  4 45  1  0  0  0  0
  4 47  1  0  0  0  0
  4 48  1  0  0  0  0
  4 82  1  0  0  0  0
  5 49  1  0  0  0  0
  5 50  1  0  0  0  0
  5 51  1  0  0  0  0
  5 83  1  0  0  0  0
  6 49  1  0  0  0  0
  6 52  1  0  0  0  0
  6 53  1  0  0  0  0
  6 84  1  0  0  0  0
  7 50  1  0  0  0  0
  7 52  1  0  0  0  0
  7 54  1  0  0  0  0
  7 85  1  0  0  0  0
  8 51  1  0  0  0  0
  8 53  1  0  0  0  0
  8 54  1  0  0  0  0
  8 86  1  0  0  0  0
  9 55  1  0  0  0  0
  9 56  1  0  0  0  0
  9 57  1  0  0  0  0
  9 87  1  0  0  0  0
 10 55  1  0  0  0  0
 10 58  1  0  0  0  0
 10 59  1  0  0  0  0
 10 88  1  0  0  0  0
 11 56  1  0  0  0  0
 11 58  1  0  0  0  0
 11 60  1  0  0  0  0
 11 89  1  0  0  0  0
 12 57  1  0  0  0  0
 12 59  1  0  0  0  0
 12 60  1  0  0  0  0
 12 90  1  0  0  0  0
 13 61  1  0  0  0  0
 13 62  1  0  0  0  0
 13 63  1  0  0  0  0
 13 91  1  0  0  0  0
 14 61  1  0  0  0  0
 14 64  1  0  0  0  0
 14 65  1  0  0  0  0
 14 92  1  0  0  0  0
 15 62  1  0  0  0  0
 15 64  1  0  0  0  0
 15 66  1  0  0  0  0
 15 93  1  0  0  0  0
 16 63  1  0  0  0  0
 16 65  1  0  0  0  0
 16 66  1  0  0  0  0
 16 94  1  0  0  0  0
 17 67  1  0  0  0  0
 17 68  1  0  0  0  0
 17 69  1  0  0  0  0
 17 95  1  0  0  0  0
 18 67  1  0  0  0  0
 18 70  1  0  0  0  0
 18 71  1  0  0  0  0
 18 96  1  0  0  0  0
 19 68  1  0  0  0  0
 19 70  1  0  0  0  0
 19 72  1  0  0  0  0
 19 97  1  0  0  0  0
 20 69  1  0  0  0  0
 20 71  1  0  0  0  0
 20 72  1  0  0  0  0
 20 98  1  0  0  0  0
 21 73  1  0  0  0  0
 21 74  1  0  0  0  0
 21 75  1  0  0  0  0
 21 99  1  0  0  0  0
 22 73  1  0  0  0  0
 22 76  1  0  0  0  0
 22 77  1  0  0  0  0
 22100  1  0  0  0  0
 23 74  1  0  0  0  0
 23 76  1  0  0  0  0
 23 78  1  0  0  0  0
 23101  1  0  0  0  0
 24 75  1  0  0  0  0
 24 77  1  0  0  0  0
 24 78  1  0  0  0  0
 24102  1  0  0  0  0
103117  1  0  0  0  0
104118  1  0  0  0  0
105119  1  0  0  0  0
106120  1  0  0  0  0
107121  1  0  0  0  0
108122  1  0  0  0  0
109123  1  0  0  0  0
110124  1  0  0  0  0
111125  1  0  0  0  0
112126  1  0  0  0  0
113127  1  0  0  0  0
114128  1  0  0  0  0
M  CHG  8  25   2  26   2  27   2  28   2  29   2  30   2  31   2  32   2
M  CHG  8  33   2  34   2  35   2  36   2  37   2  38   2  39   2  40   2
M  CHG  8  41   1  42   1  79  -1  80  -1  81  -1  82  -1  83  -1  84  -1
M  CHG  8  85  -1  86  -1  87  -1  88  -1  89  -1  90  -1  91  -1  92  -1
M  CHG  8  93  -1  94  -1  95  -1  96  -1  97  -1  98  -1  99  -1 100  -1
M  CHG  8 101  -1 102  -1 103  -1 104  -1 105  -1 106  -1 107  -1 108  -1
M  CHG  8 109  -1 110  -1 111  -1 112  -1 113  -1 114  -1 115   1 116   1
M  END
> <PUBCHEM_COMPOUND_CID>
71587168

> <PUBCHEM_COMPOUND_CANONICALIZED>
1

> <PUBCHEM_CACTVS_COMPLEXITY>
188

> <PUBCHEM_CACTVS_HBOND_ACCEPTOR>
72

> <PUBCHEM_CACTVS_HBOND_DONOR>
12

> <PUBCHEM_CACTVS_ROTATABLE_BOND>
0

> <PUBCHEM_CACTVS_SUBSKEYS>
AAADccwAPjwAACAAAAAAAAAAAAAAAAAAAAAkSJEiQAAAAAAAAAAAAAAACEAAAAAAAAAAAAAAAAAAAAAAAAAAAAAAAAAAAAAAAAAAAAAAAAAAAAAAAAAAAAAAAAAAAAAAAAAAAAAAAAAAAAAAAAAAAAAAAA==

> <PUBCHEM_IUPAC_OPENEYE_NAME>
dilithium;hexadecamagnesium;disodium;hexakis(1,3,5,7-tetraoxido-2,4,6,8,9,10-hexaoxa-1,3,5,7-tetrasilatricyclo[3.3.1.13,7]decane);dodecahydroxide

> <PUBCHEM_IUPAC_CAS_NAME>
dilithium;hexadecamagnesium;disodium;hexakis(1,3,5,7-tetraoxido-2,4,6,8,9,10-hexaoxa-1,3,5,7-tetrasilatricyclo[3.3.1.13,7]decane);dodecahydroxide

> <PUBCHEM_IUPAC_NAME_MARKUP>
dilithium;hexadecamagnesium;disodium;hexakis(1,3,5,7-tetraoxido-2,4,6,8,9,10-hexaoxa-1,3,5,7-tetrasilatricyclo[3.3.1.1<SUP>3,7</SUP>]decane);dodecahydroxide

> <PUBCHEM_IUPAC_NAME>
dilithium;hexadecamagnesium;disodium;hexakis(1,3,5,7-tetraoxido-2,4,6,8,9,10-hexaoxa-1,3,5,7-tetrasilatricyclo[3.3.1.13,7]decane);dodecahydroxide

> <PUBCHEM_IUPAC_SYSTEMATIC_NAME>
dilithium;hexadecamagnesium;disodium;hexakis(1,3,5,7-tetrakis(oxidanidyl)-2,4,6,8,9,10-hexaoxa-1,3,5,7-tetrasilatricyclo[3.3.1.13,7]decane);dodecahydroxide

> <PUBCHEM_IUPAC_TRADITIONAL_NAME>
dilithium;hexadecamagnesium;disodium;hexakis(1,3,5,7-tetraoxido-2,4,6,8,9,10-hexaoxa-1,3,5,7-tetrasilatricyclo[3.3.1.13,7]decane);dodecahydroxide

> <PUBCHEM_IUPAC_INCHI>
InChI=1S/2Li.16Mg.2Na.6O10Si4.12H2O/c;;;;;;;;;;;;;;;;;;;;6*1-11-5-12(2)8-13(3,6-11)10-14(4,7-11)9-12;;;;;;;;;;;;/h;;;;;;;;;;;;;;;;;;;;;;;;;;12*1H2/q2*+1;16*+2;2*+1;6*-4;;;;;;;;;;;;/p-12

> <PUBCHEM_IUPAC_INCHIKEY>
XCOBTUNSZUJCDH-UHFFFAOYSA-B

> <PUBCHEM_EXACT_MASS>
2282.944117

> <PUBCHEM_MOLECULAR_FORMULA>
H12Li2Mg16Na2O72Si24

> <PUBCHEM_MOLECULAR_WEIGHT>
2286.9

> <PUBCHEM_SMILES>
[Li+].[Li+].[OH-].[OH-].[OH-].[OH-].[OH-].[OH-].[OH-].[OH-].[OH-].[OH-].[OH-].[OH-].[O-][Si]12O[Si]3(O[Si](O1)(O[Si](O2)(O3)[O-])[O-])[O-].[O-][Si]12O[Si]3(O[Si](O1)(O[Si](O2)(O3)[O-])[O-])[O-].[O-][Si]12O[Si]3(O[Si](O1)(O[Si](O2)(O3)[O-])[O-])[O-].[O-][Si]12O[Si]3(O[Si](O1)(O[Si](O2)(O3)[O-])[O-])[O-].[O-][Si]12O[Si]3(O[Si](O1)(O[Si](O2)(O3)[O-])[O-])[O-].[O-][Si]12O[Si]3(O[Si](O1)(O[Si](O2)(O3)[O-])[O-])[O-].[Na+].[Na+].[Mg+2].[Mg+2].[Mg+2].[Mg+2].[Mg+2].[Mg+2].[Mg+2].[Mg+2].[Mg+2].[Mg+2].[Mg+2].[Mg+2].[Mg+2].[Mg+2].[Mg+2].[Mg+2]

> <PUBCHEM_CONNECTIVITY_SMILES>
[Li+].[Li+].[OH-].[OH-].[OH-].[OH-].[OH-].[OH-].[OH-].[OH-].[OH-].[OH-].[OH-].[OH-].[O-][Si]12O[Si]3(O[Si](O1)(O[Si](O2)(O3)[O-])[O-])[O-].[O-][Si]12O[Si]3(O[Si](O1)(O[Si](O2)(O3)[O-])[O-])[O-].[O-][Si]12O[Si]3(O[Si](O1)(O[Si](O2)(O3)[O-])[O-])[O-].[O-][Si]12O[Si]3(O[Si](O1)(O[Si](O2)(O3)[O-])[O-])[O-].[O-][Si]12O[Si]3(O[Si](O1)(O[Si](O2)(O3)[O-])[O-])[O-].[O-][Si]12O[Si]3(O[Si](O1)(O[Si](O2)(O3)[O-])[O-])[O-].[Na+].[Na+].[Mg+2].[Mg+2].[Mg+2].[Mg+2].[Mg+2].[Mg+2].[Mg+2].[Mg+2].[Mg+2].[Mg+2].[Mg+2].[Mg+2].[Mg+2].[Mg+2].[Mg+2].[Mg+2]

> <PUBCHEM_CACTVS_TPSA>
898

> <PUBCHEM_MONOISOTOPIC_WEIGHT>
2278.946202

> <PUBCHEM_TOTAL_CHARGE>
0

> <PUBCHEM_HEAVY_ATOM_COUNT>
116

> <PUBCHEM_ATOM_DEF_STEREO_COUNT>
0

> <PUBCHEM_ATOM_UDEF_STEREO_COUNT>
0

> <PUBCHEM_BOND_DEF_STEREO_COUNT>
0

> <PUBCHEM_BOND_UDEF_STEREO_COUNT>
0

> <PUBCHEM_ISOTOPIC_ATOM_COUNT>
0

> <PUBCHEM_COMPONENT_COUNT>
38

> <PUBCHEM_CACTVS_TAUTO_COUNT>
-1

> <PUBCHEM_COORDINATE_TYPE>
1
5
255

$$$$
