71750813
  -OEChem-05122609012D

 37 35  0     0  0  0  0  0  0999 V2000
    2.0000   -1.7500    0.0000 K   0  3  0  0  0  0  0  0  0  0  0  0
    3.7321   -1.7500    0.0000 S   0  0  0  0  0  0  0  0  0  0  0  0
    9.2942    0.6160    0.0000 F   0  0  0  0  0  0  0  0  0  0  0  0
   10.2942   -1.1160    0.0000 F   0  0  0  0  0  0  0  0  0  0  0  0
    8.4282    0.1160    0.0000 F   0  0  0  0  0  0  0  0  0  0  0  0
    9.4282   -1.6160    0.0000 F   0  0  0  0  0  0  0  0  0  0  0  0
   10.1603    1.1160    0.0000 F   0  0  0  0  0  0  0  0  0  0  0  0
   11.1603   -0.6160    0.0000 F   0  0  0  0  0  0  0  0  0  0  0  0
    7.5622   -0.3840    0.0000 F   0  0  0  0  0  0  0  0  0  0  0  0
    8.5622   -2.1160    0.0000 F   0  0  0  0  0  0  0  0  0  0  0  0
   12.0263   -0.1160    0.0000 F   0  0  0  0  0  0  0  0  0  0  0  0
   11.0263    1.6160    0.0000 F   0  0  0  0  0  0  0  0  0  0  0  0
    6.6962   -0.8840    0.0000 F   0  0  0  0  0  0  0  0  0  0  0  0
    7.6962   -2.6160    0.0000 F   0  0  0  0  0  0  0  0  0  0  0  0
   12.8923    0.3840    0.0000 F   0  0  0  0  0  0  0  0  0  0  0  0
   11.8923    2.1160    0.0000 F   0  0  0  0  0  0  0  0  0  0  0  0
   14.1244    2.2500    0.0000 F   0  0  0  0  0  0  0  0  0  0  0  0
   13.7583    0.8840    0.0000 F   0  0  0  0  0  0  0  0  0  0  0  0
   12.7583    2.6160    0.0000 F   0  0  0  0  0  0  0  0  0  0  0  0
    4.5981   -2.2500    0.0000 O   0  0  0  0  0  0  0  0  0  0  0  0
    2.8660   -1.2500    0.0000 O   0  5  0  0  0  0  0  0  0  0  0  0
    3.2321   -2.6160    0.0000 O   0  0  0  0  0  0  0  0  0  0  0  0
    4.2321   -0.8840    0.0000 O   0  0  0  0  0  0  0  0  0  0  0  0
    9.7942   -0.2500    0.0000 C   0  0  0  0  0  0  0  0  0  0  0  0
    8.9282   -0.7500    0.0000 C   0  0  0  0  0  0  0  0  0  0  0  0
   10.6603    0.2500    0.0000 C   0  0  0  0  0  0  0  0  0  0  0  0
    8.0622   -1.2500    0.0000 C   0  0  0  0  0  0  0  0  0  0  0  0
   11.5263    0.7500    0.0000 C   0  0  0  0  0  0  0  0  0  0  0  0
    7.1962   -1.7500    0.0000 C   0  0  0  0  0  0  0  0  0  0  0  0
   12.3923    1.2500    0.0000 C   0  0  0  0  0  0  0  0  0  0  0  0
    6.3301   -2.2500    0.0000 C   0  0  0  0  0  0  0  0  0  0  0  0
    5.4641   -1.7500    0.0000 C   0  0  0  0  0  0  0  0  0  0  0  0
   13.2583    1.7500    0.0000 C   0  0  0  0  0  0  0  0  0  0  0  0
    5.9316   -2.7250    0.0000 H   0  0  0  0  0  0  0  0  0  0  0  0
    6.7287   -2.7250    0.0000 H   0  0  0  0  0  0  0  0  0  0  0  0
    5.8626   -1.2751    0.0000 H   0  0  0  0  0  0  0  0  0  0  0  0
    5.0656   -1.2751    0.0000 H   0  0  0  0  0  0  0  0  0  0  0  0
  2 20  1  0  0  0  0
  2 21  1  0  0  0  0
  2 22  2  0  0  0  0
  2 23  2  0  0  0  0
  3 24  1  0  0  0  0
  4 24  1  0  0  0  0
  5 25  1  0  0  0  0
  6 25  1  0  0  0  0
  7 26  1  0  0  0  0
  8 26  1  0  0  0  0
  9 27  1  0  0  0  0
 10 27  1  0  0  0  0
 11 28  1  0  0  0  0
 12 28  1  0  0  0  0
 13 29  1  0  0  0  0
 14 29  1  0  0  0  0
 15 30  1  0  0  0  0
 16 30  1  0  0  0  0
 17 33  1  0  0  0  0
 18 33  1  0  0  0  0
 19 33  1  0  0  0  0
 20 32  1  0  0  0  0
 24 25  1  0  0  0  0
 24 26  1  0  0  0  0
 25 27  1  0  0  0  0
 26 28  1  0  0  0  0
 27 29  1  0  0  0  0
 28 30  1  0  0  0  0
 29 31  1  0  0  0  0
 30 33  1  0  0  0  0
 31 32  1  0  0  0  0
 31 34  1  0  0  0  0
 31 35  1  0  0  0  0
 32 36  1  0  0  0  0
 32 37  1  0  0  0  0
M  CHG  2   1   1  21  -1
M  END
> <PUBCHEM_COMPOUND_CID>
71750813

> <PUBCHEM_COMPOUND_CANONICALIZED>
1

> <PUBCHEM_CACTVS_COMPLEXITY>
785

> <PUBCHEM_CACTVS_HBOND_ACCEPTOR>
21

> <PUBCHEM_CACTVS_HBOND_DONOR>
0

> <PUBCHEM_CACTVS_ROTATABLE_BOND>
10

> <PUBCHEM_CACTVS_SUBSKEYS>
AAADcYBwOcBAQAAAAAAAAAAAAAAAAAAAAAAAAAAAAAAAAAAAAAAAGwAAAAAACACggBIAAAAAAAAAAAAAADAAAAAAAAAAAAAAAAAAAAIAAAAAAAAEAAAAAAGAwKAAAAAAAAAAAAAAAAAAAAAAAAAAAAAAAA==

> <PUBCHEM_IUPAC_OPENEYE_NAME>
potassium 3,3,4,4,5,5,6,6,7,7,8,8,9,9,10,10,10-heptadecafluorodecyl sulfate

> <PUBCHEM_IUPAC_CAS_NAME>
potassium 3,3,4,4,5,5,6,6,7,7,8,8,9,9,10,10,10-heptadecafluorodecyl sulfate

> <PUBCHEM_IUPAC_NAME_MARKUP>
potassium 3,3,4,4,5,5,6,6,7,7,8,8,9,9,10,10,10-heptadecafluorodecyl sulfate

> <PUBCHEM_IUPAC_NAME>
potassium 3,3,4,4,5,5,6,6,7,7,8,8,9,9,10,10,10-heptadecafluorodecyl sulfate

> <PUBCHEM_IUPAC_SYSTEMATIC_NAME>
potassium 3,3,4,4,5,5,6,6,7,7,8,8,9,9,10,10,10-heptadecakis(fluoranyl)decyl sulfate

> <PUBCHEM_IUPAC_TRADITIONAL_NAME>
potassium 3,3,4,4,5,5,6,6,7,7,8,8,9,9,10,10,10-heptadecafluorodecyl sulfate

> <PUBCHEM_IUPAC_INCHI>
InChI=1S/C10H5F17O4S.K/c11-3(12,1-2-31-32(28,29)30)4(13,14)5(15,16)6(17,18)7(19,20)8(21,22)9(23,24)10(25,26)27;/h1-2H2,(H,28,29,30);/q;+1/p-1

> <PUBCHEM_IUPAC_INCHIKEY>
CVPBVWATOIWJSM-UHFFFAOYSA-M

> <PUBCHEM_EXACT_MASS>
581.9195900

> <PUBCHEM_MOLECULAR_FORMULA>
C10H4F17KO4S

> <PUBCHEM_MOLECULAR_WEIGHT>
582.27

> <PUBCHEM_SMILES>
C(COS(=O)(=O)[O-])C(C(C(C(C(C(C(C(F)(F)F)(F)F)(F)F)(F)F)(F)F)(F)F)(F)F)(F)F.[K+]

> <PUBCHEM_CONNECTIVITY_SMILES>
C(COS(=O)(=O)[O-])C(C(C(C(C(C(C(C(F)(F)F)(F)F)(F)F)(F)F)(F)F)(F)F)(F)F)(F)F.[K+]

> <PUBCHEM_CACTVS_TPSA>
74.8

> <PUBCHEM_MONOISOTOPIC_WEIGHT>
581.9195900

> <PUBCHEM_TOTAL_CHARGE>
0

> <PUBCHEM_HEAVY_ATOM_COUNT>
33

> <PUBCHEM_ATOM_DEF_STEREO_COUNT>
0

> <PUBCHEM_ATOM_UDEF_STEREO_COUNT>
0

> <PUBCHEM_BOND_DEF_STEREO_COUNT>
0

> <PUBCHEM_BOND_UDEF_STEREO_COUNT>
0

> <PUBCHEM_ISOTOPIC_ATOM_COUNT>
0

> <PUBCHEM_COMPONENT_COUNT>
2

> <PUBCHEM_CACTVS_TAUTO_COUNT>
-1

> <PUBCHEM_NONSTANDARDBOND>
1  21  7

> <PUBCHEM_COORDINATE_TYPE>
1
5
255

$$$$
