72653
  -OEChem-05122608462D

 42 45  0     1  0  0  0  0  0999 V2000
    4.6381    1.5138    0.0000 O   0  0  0  0  0  0  0  0  0  0  0  0
    2.8680    1.5033    0.0000 O   0  0  0  0  0  0  0  0  0  0  0  0
    2.8718   -1.5450    0.0000 O   0  0  0  0  0  0  0  0  0  0  0  0
    2.0000   -0.0484    0.0000 O   0  0  0  0  0  0  0  0  0  0  0  0
    8.1741    1.4860    0.0000 N   0  0  3  0  0  0  0  0  0  0  0  0
    7.2641    0.9791    0.0000 C   0  0  0  0  0  0  0  0  0  0  0  0
    8.1821    2.5276    0.0000 C   0  0  0  0  0  0  0  0  0  0  0  0
    6.3981    1.4791    0.0000 C   0  0  0  0  0  0  0  0  0  0  0  0
    9.0134    0.9577    0.0000 C   0  0  0  0  0  0  0  0  0  0  0  0
    7.2641   -0.0209    0.0000 C   0  0  0  0  0  0  0  0  0  0  0  0
    6.3820    2.5206    0.0000 C   0  0  0  0  0  0  0  0  0  0  0  0
    7.2801    3.0484    0.0000 C   0  0  0  0  0  0  0  0  0  0  0  0
    8.9878   -0.0337    0.0000 C   0  0  0  0  0  0  0  0  0  0  0  0
    8.1223   -0.5178    0.0000 C   0  0  0  0  0  0  0  0  0  0  0  0
    5.5321    0.9791    0.0000 C   0  0  0  0  0  0  0  0  0  0  0  0
    6.3981   -0.5209    0.0000 C   0  0  0  0  0  0  0  0  0  0  0  0
    5.5321   -0.0209    0.0000 C   0  0  0  0  0  0  0  0  0  0  0  0
    4.6381   -0.5556    0.0000 C   0  0  0  0  0  0  0  0  0  0  0  0
    3.7320   -0.0417    0.0000 C   0  0  0  0  0  0  0  0  0  0  0  0
    3.7320    0.9999    0.0000 C   0  0  0  0  0  0  0  0  0  0  0  0
    2.8680   -0.5450    0.0000 C   0  0  0  0  0  0  0  0  0  0  0  0
    2.0077   -2.0484    0.0000 C   0  0  0  0  0  0  0  0  0  0  0  0
    2.0116   -3.0484    0.0000 C   0  0  0  0  0  0  0  0  0  0  0  0
    8.7922    2.4168    0.0000 H   0  0  0  0  0  0  0  0  0  0  0  0
    8.3957    3.1096    0.0000 H   0  0  0  0  0  0  0  0  0  0  0  0
    9.6205    0.8318    0.0000 H   0  0  0  0  0  0  0  0  0  0  0  0
    9.2452    1.5328    0.0000 H   0  0  0  0  0  0  0  0  0  0  0  0
    6.1640    3.1010    0.0000 H   0  0  0  0  0  0  0  0  0  0  0  0
    5.7729    2.4051    0.0000 H   0  0  0  0  0  0  0  0  0  0  0  0
    7.6774    3.5243    0.0000 H   0  0  0  0  0  0  0  0  0  0  0  0
    6.8791    3.5213    0.0000 H   0  0  0  0  0  0  0  0  0  0  0  0
    9.1895   -0.6199    0.0000 H   0  0  0  0  0  0  0  0  0  0  0  0
    9.6006    0.0607    0.0000 H   0  0  0  0  0  0  0  0  0  0  0  0
    7.7213   -0.9906    0.0000 H   0  0  0  0  0  0  0  0  0  0  0  0
    8.5163   -0.9965    0.0000 H   0  0  0  0  0  0  0  0  0  0  0  0
    6.3981   -1.1409    0.0000 H   0  0  0  0  0  0  0  0  0  0  0  0
    4.6453   -1.1755    0.0000 H   0  0  0  0  0  0  0  0  0  0  0  0
    1.7934   -1.4666    0.0000 H   0  0  0  0  0  0  0  0  0  0  0  0
    1.3976   -2.1584    0.0000 H   0  0  0  0  0  0  0  0  0  0  0  0
    1.3916   -3.0508    0.0000 H   0  0  0  0  0  0  0  0  0  0  0  0
    2.0140   -3.6684    0.0000 H   0  0  0  0  0  0  0  0  0  0  0  0
    2.6316   -3.0460    0.0000 H   0  0  0  0  0  0  0  0  0  0  0  0
  1 15  1  0  0  0  0
  1 20  1  0  0  0  0
  2 20  2  0  0  0  0
  3 21  1  0  0  0  0
  3 22  1  0  0  0  0
  4 21  2  0  0  0  0
  5  6  1  0  0  0  0
  5  7  1  0  0  0  0
  5  9  1  0  0  0  0
  6  8  1  0  0  0  0
  6 10  2  0  0  0  0
  7 12  1  0  0  0  0
  7 24  1  0  0  0  0
  7 25  1  0  0  0  0
  8 11  1  0  0  0  0
  8 15  2  0  0  0  0
  9 13  1  0  0  0  0
  9 26  1  0  0  0  0
  9 27  1  0  0  0  0
 10 14  1  0  0  0  0
 10 16  1  0  0  0  0
 11 12  1  0  0  0  0
 11 28  1  0  0  0  0
 11 29  1  0  0  0  0
 12 30  1  0  0  0  0
 12 31  1  0  0  0  0
 13 14  1  0  0  0  0
 13 32  1  0  0  0  0
 13 33  1  0  0  0  0
 14 34  1  0  0  0  0
 14 35  1  0  0  0  0
 15 17  1  0  0  0  0
 16 17  2  0  0  0  0
 16 36  1  0  0  0  0
 17 18  1  0  0  0  0
 18 19  2  0  0  0  0
 18 37  1  0  0  0  0
 19 20  1  0  0  0  0
 19 21  1  0  0  0  0
 22 23  1  0  0  0  0
 22 38  1  0  0  0  0
 22 39  1  0  0  0  0
 23 40  1  0  0  0  0
 23 41  1  0  0  0  0
 23 42  1  0  0  0  0
M  END
> <PUBCHEM_COMPOUND_CID>
72653

> <PUBCHEM_COMPOUND_CANONICALIZED>
1

> <PUBCHEM_CACTVS_COMPLEXITY>
543

> <PUBCHEM_CACTVS_HBOND_ACCEPTOR>
5

> <PUBCHEM_CACTVS_HBOND_DONOR>
0

> <PUBCHEM_CACTVS_ROTATABLE_BOND>
3

> <PUBCHEM_CACTVS_SUBSKEYS>
AAADceB6OAAAAAAAAAAAAAAAAAAAAAAAAAA8WIEAAAAAAACxAAAAHgAAAAAADAzhmAYyzoMABACIAiTSSACCCAAhIAAAiAEMTMgMJibMsZuGOijn4BnI6YeQ0OMOKAACAgAKAABQAAQEABQAAAAAAAAAAA==

> <PUBCHEM_IUPAC_OPENEYE_NAME>
ethyl 4-oxo-3-oxa-13-azatetracyclo[7.7.1.02,7.013,17]heptadeca-1,5,7,9(17)-tetraene-5-carboxylate

> <PUBCHEM_IUPAC_CAS_NAME>
4-oxo-3-oxa-13-azatetracyclo[7.7.1.02,7.013,17]heptadeca-1,5,7,9(17)-tetraene-5-carboxylic acid ethyl ester

> <PUBCHEM_IUPAC_NAME_MARKUP>
ethyl 4-oxo-3-oxa-13-azatetracyclo[7.7.1.0<SUP>2,7</SUP>.0<SUP>13,17</SUP>]heptadeca-1,5,7,9(17)-tetraene-5-carboxylate

> <PUBCHEM_IUPAC_NAME>
ethyl 4-oxo-3-oxa-13-azatetracyclo[7.7.1.02,7.013,17]heptadeca-1,5,7,9(17)-tetraene-5-carboxylate

> <PUBCHEM_IUPAC_SYSTEMATIC_NAME>
ethyl 4-oxidanylidene-3-oxa-13-azatetracyclo[7.7.1.02,7.013,17]heptadeca-1,5,7,9(17)-tetraene-5-carboxylate

> <PUBCHEM_IUPAC_TRADITIONAL_NAME>
4-keto-3-oxa-13-azatetracyclo[7.7.1.02,7.013,17]heptadeca-1,5,7,9(17)-tetraene-5-carboxylic acid ethyl ester

> <PUBCHEM_IUPAC_INCHI>
InChI=1S/C18H19NO4/c1-2-22-17(20)14-10-12-9-11-5-3-7-19-8-4-6-13(15(11)19)16(12)23-18(14)21/h9-10H,2-8H2,1H3

> <PUBCHEM_IUPAC_INCHIKEY>
VMJKUPWQKZFFCX-UHFFFAOYSA-N

> <PUBCHEM_XLOGP3_AA>
3.2

> <PUBCHEM_EXACT_MASS>
313.13140809

> <PUBCHEM_MOLECULAR_FORMULA>
C18H19NO4

> <PUBCHEM_MOLECULAR_WEIGHT>
313.3

> <PUBCHEM_SMILES>
CCOC(=O)C1=CC2=CC3=C4C(=C2OC1=O)CCCN4CCC3

> <PUBCHEM_CONNECTIVITY_SMILES>
CCOC(=O)C1=CC2=CC3=C4C(=C2OC1=O)CCCN4CCC3

> <PUBCHEM_CACTVS_TPSA>
55.8

> <PUBCHEM_MONOISOTOPIC_WEIGHT>
313.13140809

> <PUBCHEM_TOTAL_CHARGE>
0

> <PUBCHEM_HEAVY_ATOM_COUNT>
23

> <PUBCHEM_ATOM_DEF_STEREO_COUNT>
0

> <PUBCHEM_ATOM_UDEF_STEREO_COUNT>
0

> <PUBCHEM_BOND_DEF_STEREO_COUNT>
0

> <PUBCHEM_BOND_UDEF_STEREO_COUNT>
0

> <PUBCHEM_ISOTOPIC_ATOM_COUNT>
0

> <PUBCHEM_COMPONENT_COUNT>
1

> <PUBCHEM_CACTVS_TAUTO_COUNT>
-1

> <PUBCHEM_COORDINATE_TYPE>
1
5
255

> <PUBCHEM_BONDANNOTATIONS>
1  15  8
1  20  8
10  16  8
15  17  8
16  17  8
17  18  8
18  19  8
19  20  8
6  10  8
6  8  8
8  15  8

$$$$
