72812
  -OEChem-05122609512D

 42 46  0     0  0  0  0  0  0999 V2000
    4.6500    2.7741    0.0000 N   0  0  0  0  0  0  0  0  0  0  0  0
    2.9061    1.7673    0.0000 N   0  0  0  0  0  0  0  0  0  0  0  0
    5.5321    1.2326    0.0000 C   0  0  0  0  0  0  0  0  0  0  0  0
    3.8000    0.2326    0.0000 C   0  0  0  0  0  0  0  0  0  0  0  0
    4.6660    1.7326    0.0000 C   0  0  0  0  0  0  0  0  0  0  0  0
    3.8000    1.2326    0.0000 C   0  0  0  0  0  0  0  0  0  0  0  0
    6.4421    1.7395    0.0000 C   0  0  0  0  0  0  0  0  0  0  0  0
    2.9061   -0.3021    0.0000 C   0  0  0  0  0  0  0  0  0  0  0  0
    5.5321    0.2326    0.0000 C   0  0  0  0  0  0  0  0  0  0  0  0
    4.6660   -0.2674    0.0000 C   0  0  0  0  0  0  0  0  0  0  0  0
    7.3023    1.2295    0.0000 C   0  0  0  0  0  0  0  0  0  0  0  0
    2.9176   -1.3020    0.0000 C   0  0  0  0  0  0  0  0  0  0  0  0
    6.4501    2.7811    0.0000 C   0  0  0  0  0  0  0  0  0  0  0  0
    2.0000    0.2118    0.0000 C   0  0  0  0  0  0  0  0  0  0  0  0
    5.5480    3.3019    0.0000 C   0  0  0  0  0  0  0  0  0  0  0  0
    2.0000    1.2534    0.0000 C   0  0  0  0  0  0  0  0  0  0  0  0
    7.2907    0.2295    0.0000 C   0  0  0  0  0  0  0  0  0  0  0  0
    3.7894   -1.7920    0.0000 C   0  0  0  0  0  0  0  0  0  0  0  0
    8.1740    1.7194    0.0000 C   0  0  0  0  0  0  0  0  0  0  0  0
    2.0574   -1.8120    0.0000 C   0  0  0  0  0  0  0  0  0  0  0  0
    8.1509   -0.2804    0.0000 C   0  0  0  0  0  0  0  0  0  0  0  0
    3.8009   -2.7919    0.0000 C   0  0  0  0  0  0  0  0  0  0  0  0
    9.0342    1.2094    0.0000 C   0  0  0  0  0  0  0  0  0  0  0  0
    2.0690   -2.8119    0.0000 C   0  0  0  0  0  0  0  0  0  0  0  0
    9.0226    0.2095    0.0000 C   0  0  0  0  0  0  0  0  0  0  0  0
    2.9408   -3.3019    0.0000 C   0  0  0  0  0  0  0  0  0  0  0  0
    6.0690   -0.0774    0.0000 H   0  0  0  0  0  0  0  0  0  0  0  0
    4.6660   -0.8874    0.0000 H   0  0  0  0  0  0  0  0  0  0  0  0
    6.9882    3.0890    0.0000 H   0  0  0  0  0  0  0  0  0  0  0  0
    1.4643   -0.1003    0.0000 H   0  0  0  0  0  0  0  0  0  0  0  0
    5.5456    3.9219    0.0000 H   0  0  0  0  0  0  0  0  0  0  0  0
    1.4643    1.5655    0.0000 H   0  0  0  0  0  0  0  0  0  0  0  0
    6.7502   -0.0742    0.0000 H   0  0  0  0  0  0  0  0  0  0  0  0
    4.3227   -1.4758    0.0000 H   0  0  0  0  0  0  0  0  0  0  0  0
    8.1812    2.3394    0.0000 H   0  0  0  0  0  0  0  0  0  0  0  0
    1.5170   -1.5082    0.0000 H   0  0  0  0  0  0  0  0  0  0  0  0
    8.1437   -0.9004    0.0000 H   0  0  0  0  0  0  0  0  0  0  0  0
    4.3414   -3.0957    0.0000 H   0  0  0  0  0  0  0  0  0  0  0  0
    9.5747    1.5132    0.0000 H   0  0  0  0  0  0  0  0  0  0  0  0
    1.5357   -3.1281    0.0000 H   0  0  0  0  0  0  0  0  0  0  0  0
    9.5559   -0.1067    0.0000 H   0  0  0  0  0  0  0  0  0  0  0  0
    2.9479   -3.9218    0.0000 H   0  0  0  0  0  0  0  0  0  0  0  0
  1  5  2  0  0  0  0
  1 15  1  0  0  0  0
  2  6  2  0  0  0  0
  2 16  1  0  0  0  0
  3  5  1  0  0  0  0
  3  7  2  0  0  0  0
  3  9  1  0  0  0  0
  4  6  1  0  0  0  0
  4  8  2  0  0  0  0
  4 10  1  0  0  0  0
  5  6  1  0  0  0  0
  7 11  1  0  0  0  0
  7 13  1  0  0  0  0
  8 12  1  0  0  0  0
  8 14  1  0  0  0  0
  9 10  2  0  0  0  0
  9 27  1  0  0  0  0
 10 28  1  0  0  0  0
 11 17  2  0  0  0  0
 11 19  1  0  0  0  0
 12 18  2  0  0  0  0
 12 20  1  0  0  0  0
 13 15  2  0  0  0  0
 13 29  1  0  0  0  0
 14 16  2  0  0  0  0
 14 30  1  0  0  0  0
 15 31  1  0  0  0  0
 16 32  1  0  0  0  0
 17 21  1  0  0  0  0
 17 33  1  0  0  0  0
 18 22  1  0  0  0  0
 18 34  1  0  0  0  0
 19 23  2  0  0  0  0
 19 35  1  0  0  0  0
 20 24  2  0  0  0  0
 20 36  1  0  0  0  0
 21 25  2  0  0  0  0
 21 37  1  0  0  0  0
 22 26  2  0  0  0  0
 22 38  1  0  0  0  0
 23 25  1  0  0  0  0
 23 39  1  0  0  0  0
 24 26  1  0  0  0  0
 24 40  1  0  0  0  0
 25 41  1  0  0  0  0
 26 42  1  0  0  0  0
M  END
> <PUBCHEM_COMPOUND_CID>
72812

> <PUBCHEM_COMPOUND_CANONICALIZED>
1

> <PUBCHEM_CACTVS_COMPLEXITY>
409

> <PUBCHEM_CACTVS_HBOND_ACCEPTOR>
2

> <PUBCHEM_CACTVS_HBOND_DONOR>
0

> <PUBCHEM_CACTVS_ROTATABLE_BOND>
2

> <PUBCHEM_CACTVS_SUBSKEYS>
AAADceB7AAAAAAAAAAAAAAAAAAAAAAAAAAA8eMECAAAAAACx/gAAHAAAAAAADAjBHgQ8wPIIEACgAzRnRACCgCQxEiAI2CA4dJgIYOLAkZGUIAhggADIyAcQgMAOwAAAQAACACCAAACAAAQAQAAAAAAAAA==

> <PUBCHEM_IUPAC_OPENEYE_NAME>
4,7-diphenyl-1,10-phenanthroline

> <PUBCHEM_IUPAC_CAS_NAME>
4,7-diphenyl-1,10-phenanthroline

> <PUBCHEM_IUPAC_NAME_MARKUP>
4,7-diphenyl-1,10-phenanthroline

> <PUBCHEM_IUPAC_NAME>
4,7-diphenyl-1,10-phenanthroline

> <PUBCHEM_IUPAC_SYSTEMATIC_NAME>
4,7-diphenyl-1,10-phenanthroline

> <PUBCHEM_IUPAC_TRADITIONAL_NAME>
4,7-diphenyl-1,10-phenanthroline

> <PUBCHEM_IUPAC_INCHI>
InChI=1S/C24H16N2/c1-3-7-17(8-4-1)19-13-15-25-23-21(19)11-12-22-20(14-16-26-24(22)23)18-9-5-2-6-10-18/h1-16H

> <PUBCHEM_IUPAC_INCHIKEY>
DHDHJYNTEFLIHY-UHFFFAOYSA-N

> <PUBCHEM_XLOGP3_AA>
5.7

> <PUBCHEM_EXACT_MASS>
332.131348519

> <PUBCHEM_MOLECULAR_FORMULA>
C24H16N2

> <PUBCHEM_MOLECULAR_WEIGHT>
332.4

> <PUBCHEM_SMILES>
C1=CC=C(C=C1)C2=C3C=CC4=C(C=CN=C4C3=NC=C2)C5=CC=CC=C5

> <PUBCHEM_CONNECTIVITY_SMILES>
C1=CC=C(C=C1)C2=C3C=CC4=C(C=CN=C4C3=NC=C2)C5=CC=CC=C5

> <PUBCHEM_CACTVS_TPSA>
25.8

> <PUBCHEM_MONOISOTOPIC_WEIGHT>
332.131348519

> <PUBCHEM_TOTAL_CHARGE>
0

> <PUBCHEM_HEAVY_ATOM_COUNT>
26

> <PUBCHEM_ATOM_DEF_STEREO_COUNT>
0

> <PUBCHEM_ATOM_UDEF_STEREO_COUNT>
0

> <PUBCHEM_BOND_DEF_STEREO_COUNT>
0

> <PUBCHEM_BOND_UDEF_STEREO_COUNT>
0

> <PUBCHEM_ISOTOPIC_ATOM_COUNT>
0

> <PUBCHEM_COMPONENT_COUNT>
1

> <PUBCHEM_CACTVS_TAUTO_COUNT>
-1

> <PUBCHEM_COORDINATE_TYPE>
1
5
255

> <PUBCHEM_BONDANNOTATIONS>
1  15  8
1  5  8
11  17  8
11  19  8
12  18  8
12  20  8
13  15  8
14  16  8
17  21  8
18  22  8
19  23  8
2  16  8
2  6  8
20  24  8
21  25  8
22  26  8
23  25  8
24  26  8
3  5  8
3  7  8
3  9  8
4  10  8
4  6  8
4  8  8
5  6  8
7  13  8
8  14  8
9  10  8

$$$$
