7306
  -OEChem-05122609162D

 55 56  0     0  0  0  0  0  0999 V2000
    6.0010    0.1550    0.0000 S   0  0  0  0  0  0  0  0  0  0  0  0
    2.5369    2.1550    0.0000 O   0  0  0  0  0  0  0  0  0  0  0  0
    6.0010   -3.8450    0.0000 O   0  0  0  0  0  0  0  0  0  0  0  0
    4.2690    3.1550    0.0000 C   0  0  0  0  0  0  0  0  0  0  0  0
    7.7331   -2.8450    0.0000 C   0  0  0  0  0  0  0  0  0  0  0  0
    4.2690    2.1550    0.0000 C   0  0  0  0  0  0  0  0  0  0  0  0
    6.8671   -2.3450    0.0000 C   0  0  0  0  0  0  0  0  0  0  0  0
    4.2690    4.1550    0.0000 C   0  0  0  0  0  0  0  0  0  0  0  0
    5.2690    3.1550    0.0000 C   0  0  0  0  0  0  0  0  0  0  0  0
    3.2690    3.1550    0.0000 C   0  0  0  0  0  0  0  0  0  0  0  0
    8.5991   -3.3450    0.0000 C   0  0  0  0  0  0  0  0  0  0  0  0
    8.2331   -1.9790    0.0000 C   0  0  0  0  0  0  0  0  0  0  0  0
    7.2331   -3.7110    0.0000 C   0  0  0  0  0  0  0  0  0  0  0  0
    3.4030    1.6550    0.0000 C   0  0  0  0  0  0  0  0  0  0  0  0
    6.0010   -2.8450    0.0000 C   0  0  0  0  0  0  0  0  0  0  0  0
    5.1350    1.6550    0.0000 C   0  0  0  0  0  0  0  0  0  0  0  0
    6.8671   -1.3450    0.0000 C   0  0  0  0  0  0  0  0  0  0  0  0
    5.1350    0.6550    0.0000 C   0  0  0  0  0  0  0  0  0  0  0  0
    6.0010   -0.8450    0.0000 C   0  0  0  0  0  0  0  0  0  0  0  0
    3.4030    0.6550    0.0000 C   0  0  0  0  0  0  0  0  0  0  0  0
    5.1350   -2.3450    0.0000 C   0  0  0  0  0  0  0  0  0  0  0  0
    4.2690    0.1550    0.0000 C   0  0  0  0  0  0  0  0  0  0  0  0
    5.1350   -1.3450    0.0000 C   0  0  0  0  0  0  0  0  0  0  0  0
    2.5369    0.1550    0.0000 C   0  0  0  0  0  0  0  0  0  0  0  0
    4.2690   -2.8450    0.0000 C   0  0  0  0  0  0  0  0  0  0  0  0
    4.8890    4.1550    0.0000 H   0  0  0  0  0  0  0  0  0  0  0  0
    4.2690    4.7750    0.0000 H   0  0  0  0  0  0  0  0  0  0  0  0
    3.6490    4.1550    0.0000 H   0  0  0  0  0  0  0  0  0  0  0  0
    5.2690    2.5350    0.0000 H   0  0  0  0  0  0  0  0  0  0  0  0
    5.8890    3.1550    0.0000 H   0  0  0  0  0  0  0  0  0  0  0  0
    5.2690    3.7750    0.0000 H   0  0  0  0  0  0  0  0  0  0  0  0
    3.2690    3.7750    0.0000 H   0  0  0  0  0  0  0  0  0  0  0  0
    2.6490    3.1550    0.0000 H   0  0  0  0  0  0  0  0  0  0  0  0
    3.2690    2.5350    0.0000 H   0  0  0  0  0  0  0  0  0  0  0  0
    8.2891   -3.8819    0.0000 H   0  0  0  0  0  0  0  0  0  0  0  0
    9.1361   -3.6550    0.0000 H   0  0  0  0  0  0  0  0  0  0  0  0
    8.9091   -2.8081    0.0000 H   0  0  0  0  0  0  0  0  0  0  0  0
    8.7700   -2.2890    0.0000 H   0  0  0  0  0  0  0  0  0  0  0  0
    8.5431   -1.4420    0.0000 H   0  0  0  0  0  0  0  0  0  0  0  0
    7.6962   -1.6690    0.0000 H   0  0  0  0  0  0  0  0  0  0  0  0
    6.6962   -3.4010    0.0000 H   0  0  0  0  0  0  0  0  0  0  0  0
    6.9231   -4.2480    0.0000 H   0  0  0  0  0  0  0  0  0  0  0  0
    7.7700   -4.0210    0.0000 H   0  0  0  0  0  0  0  0  0  0  0  0
    5.6720    1.9650    0.0000 H   0  0  0  0  0  0  0  0  0  0  0  0
    7.4040   -1.0350    0.0000 H   0  0  0  0  0  0  0  0  0  0  0  0
    4.2690   -0.4650    0.0000 H   0  0  0  0  0  0  0  0  0  0  0  0
    4.5981   -1.0350    0.0000 H   0  0  0  0  0  0  0  0  0  0  0  0
    2.2269    0.6919    0.0000 H   0  0  0  0  0  0  0  0  0  0  0  0
    2.0000   -0.1550    0.0000 H   0  0  0  0  0  0  0  0  0  0  0  0
    2.8469   -0.3819    0.0000 H   0  0  0  0  0  0  0  0  0  0  0  0
    3.9590   -2.3081    0.0000 H   0  0  0  0  0  0  0  0  0  0  0  0
    3.7321   -3.1550    0.0000 H   0  0  0  0  0  0  0  0  0  0  0  0
    4.5790   -3.3819    0.0000 H   0  0  0  0  0  0  0  0  0  0  0  0
    2.0000    1.8450    0.0000 H   0  0  0  0  0  0  0  0  0  0  0  0
    5.4641   -4.1550    0.0000 H   0  0  0  0  0  0  0  0  0  0  0  0
  1 18  1  0  0  0  0
  1 19  1  0  0  0  0
  2 14  1  0  0  0  0
  2 54  1  0  0  0  0
  3 15  1  0  0  0  0
  3 55  1  0  0  0  0
  4  6  1  0  0  0  0
  4  8  1  0  0  0  0
  4  9  1  0  0  0  0
  4 10  1  0  0  0  0
  5  7  1  0  0  0  0
  5 11  1  0  0  0  0
  5 12  1  0  0  0  0
  5 13  1  0  0  0  0
  6 14  2  0  0  0  0
  6 16  1  0  0  0  0
  7 15  2  0  0  0  0
  7 17  1  0  0  0  0
  8 26  1  0  0  0  0
  8 27  1  0  0  0  0
  8 28  1  0  0  0  0
  9 29  1  0  0  0  0
  9 30  1  0  0  0  0
  9 31  1  0  0  0  0
 10 32  1  0  0  0  0
 10 33  1  0  0  0  0
 10 34  1  0  0  0  0
 11 35  1  0  0  0  0
 11 36  1  0  0  0  0
 11 37  1  0  0  0  0
 12 38  1  0  0  0  0
 12 39  1  0  0  0  0
 12 40  1  0  0  0  0
 13 41  1  0  0  0  0
 13 42  1  0  0  0  0
 13 43  1  0  0  0  0
 14 20  1  0  0  0  0
 15 21  1  0  0  0  0
 16 18  2  0  0  0  0
 16 44  1  0  0  0  0
 17 19  2  0  0  0  0
 17 45  1  0  0  0  0
 18 22  1  0  0  0  0
 19 23  1  0  0  0  0
 20 22  2  0  0  0  0
 20 24  1  0  0  0  0
 21 23  2  0  0  0  0
 21 25  1  0  0  0  0
 22 46  1  0  0  0  0
 23 47  1  0  0  0  0
 24 48  1  0  0  0  0
 24 49  1  0  0  0  0
 24 50  1  0  0  0  0
 25 51  1  0  0  0  0
 25 52  1  0  0  0  0
 25 53  1  0  0  0  0
M  END
> <PUBCHEM_COMPOUND_CID>
7306

> <PUBCHEM_COMPOUND_CANONICALIZED>
1

> <PUBCHEM_CACTVS_COMPLEXITY>
396

> <PUBCHEM_CACTVS_HBOND_ACCEPTOR>
3

> <PUBCHEM_CACTVS_HBOND_DONOR>
2

> <PUBCHEM_CACTVS_ROTATABLE_BOND>
4

> <PUBCHEM_CACTVS_SUBSKEYS>
AAADceB4MABAAAAAAAAAAAAAAAAAAAAAAAAwYAAAAAAAAAABQAAAGgQACAAADgSA2AAyB4AAAgiAAiBCAAACAAAgKBAAiBgECIgIJiKiERKAcAAkwBEomAeAwOAPgIACgAAIAAABAAUAABAAAAAAAAAAAA==

> <PUBCHEM_IUPAC_OPENEYE_NAME>
2-tert-butyl-4-(3-tert-butyl-4-hydroxy-5-methyl-phenyl)sulfanyl-6-methyl-phenol

> <PUBCHEM_IUPAC_CAS_NAME>
2-tert-butyl-4-[(3-tert-butyl-4-hydroxy-5-methylphenyl)thio]-6-methylphenol

> <PUBCHEM_IUPAC_NAME_MARKUP>
2-<I>tert</I>-butyl-4-(3-<I>tert</I>-butyl-4-hydroxy-5-methylphenyl)sulfanyl-6-methylphenol

> <PUBCHEM_IUPAC_NAME>
2-tert-butyl-4-(3-tert-butyl-4-hydroxy-5-methylphenyl)sulfanyl-6-methylphenol

> <PUBCHEM_IUPAC_SYSTEMATIC_NAME>
2-tert-butyl-4-(3-tert-butyl-5-methyl-4-oxidanyl-phenyl)sulfanyl-6-methyl-phenol

> <PUBCHEM_IUPAC_TRADITIONAL_NAME>
2-tert-butyl-4-[(3-tert-butyl-4-hydroxy-5-methyl-phenyl)thio]-6-methyl-phenol

> <PUBCHEM_IUPAC_INCHI>
InChI=1S/C22H30O2S/c1-13-9-15(11-17(19(13)23)21(3,4)5)25-16-10-14(2)20(24)18(12-16)22(6,7)8/h9-12,23-24H,1-8H3

> <PUBCHEM_IUPAC_INCHIKEY>
YFHKLSPMRRWLKI-UHFFFAOYSA-N

> <PUBCHEM_XLOGP3_AA>
7.4

> <PUBCHEM_EXACT_MASS>
358.19665137

> <PUBCHEM_MOLECULAR_FORMULA>
C22H30O2S

> <PUBCHEM_MOLECULAR_WEIGHT>
358.5

> <PUBCHEM_SMILES>
CC1=CC(=CC(=C1O)C(C)(C)C)SC2=CC(=C(C(=C2)C)O)C(C)(C)C

> <PUBCHEM_CONNECTIVITY_SMILES>
CC1=CC(=CC(=C1O)C(C)(C)C)SC2=CC(=C(C(=C2)C)O)C(C)(C)C

> <PUBCHEM_CACTVS_TPSA>
65.8

> <PUBCHEM_MONOISOTOPIC_WEIGHT>
358.19665137

> <PUBCHEM_TOTAL_CHARGE>
0

> <PUBCHEM_HEAVY_ATOM_COUNT>
25

> <PUBCHEM_ATOM_DEF_STEREO_COUNT>
0

> <PUBCHEM_ATOM_UDEF_STEREO_COUNT>
0

> <PUBCHEM_BOND_DEF_STEREO_COUNT>
0

> <PUBCHEM_BOND_UDEF_STEREO_COUNT>
0

> <PUBCHEM_ISOTOPIC_ATOM_COUNT>
0

> <PUBCHEM_COMPONENT_COUNT>
1

> <PUBCHEM_CACTVS_TAUTO_COUNT>
-1

> <PUBCHEM_COORDINATE_TYPE>
1
5
255

> <PUBCHEM_BONDANNOTATIONS>
14  20  8
15  21  8
16  18  8
17  19  8
18  22  8
19  23  8
20  22  8
21  23  8
6  14  8
6  16  8
7  15  8
7  17  8

$$$$
