73415784
  -OEChem-05122609562D

 54 52  0     0  0  0  0  0  0999 V2000
    3.7321    0.0670    0.0000 S   0  0  0  0  0  0  0  0  0  0  0  0
    2.0000    0.0670    0.0000 Na  0  3  0  0  0  0  0  0  0  0  0  0
    6.3301    0.5670    0.0000 O   0  0  0  0  0  0  0  0  0  0  0  0
    7.1962   -0.9330    0.0000 O   0  0  0  0  0  0  0  0  0  0  0  0
    2.8660   -0.4330    0.0000 O   0  5  0  0  0  0  0  0  0  0  0  0
    3.2321    0.9330    0.0000 O   0  0  0  0  0  0  0  0  0  0  0  0
    4.2321   -0.7990    0.0000 O   0  0  0  0  0  0  0  0  0  0  0  0
   13.2583    0.5670    0.0000 C   0  0  0  0  0  0  0  0  0  0  0  0
   12.3923    0.0670    0.0000 C   0  0  0  0  0  0  0  0  0  0  0  0
   14.1244    0.0670    0.0000 C   0  0  0  0  0  0  0  0  0  0  0  0
   11.5263    0.5670    0.0000 C   0  0  0  0  0  0  0  0  0  0  0  0
   14.9904    0.5670    0.0000 C   0  0  0  0  0  0  0  0  0  0  0  0
   10.6603    0.0670    0.0000 C   0  0  0  0  0  0  0  0  0  0  0  0
   15.8564    0.0670    0.0000 C   0  0  0  0  0  0  0  0  0  0  0  0
    9.7942    0.5670    0.0000 C   0  0  0  0  0  0  0  0  0  0  0  0
   16.7224    0.5670    0.0000 C   0  0  0  0  0  0  0  0  0  0  0  0
    8.9282    0.0670    0.0000 C   0  0  0  0  0  0  0  0  0  0  0  0
   17.5885    0.0670    0.0000 C   0  0  0  0  0  0  0  0  0  0  0  0
    8.0622    0.5670    0.0000 C   0  0  0  0  0  0  0  0  0  0  0  0
   18.4545    0.5670    0.0000 C   0  0  0  0  0  0  0  0  0  0  0  0
    7.1962    0.0670    0.0000 C   0  0  0  0  0  0  0  0  0  0  0  0
    5.4641    0.0670    0.0000 C   0  0  0  0  0  0  0  0  0  0  0  0
    4.5981    0.5670    0.0000 C   0  0  0  0  0  0  0  0  0  0  0  0
   13.6569    1.0419    0.0000 H   0  0  0  0  0  0  0  0  0  0  0  0
   12.8598    1.0419    0.0000 H   0  0  0  0  0  0  0  0  0  0  0  0
   11.9938   -0.4080    0.0000 H   0  0  0  0  0  0  0  0  0  0  0  0
   12.7908   -0.4080    0.0000 H   0  0  0  0  0  0  0  0  0  0  0  0
   13.7258   -0.4080    0.0000 H   0  0  0  0  0  0  0  0  0  0  0  0
   14.5229   -0.4080    0.0000 H   0  0  0  0  0  0  0  0  0  0  0  0
   11.9248    1.0419    0.0000 H   0  0  0  0  0  0  0  0  0  0  0  0
   11.1278    1.0419    0.0000 H   0  0  0  0  0  0  0  0  0  0  0  0
   15.3889    1.0419    0.0000 H   0  0  0  0  0  0  0  0  0  0  0  0
   14.5919    1.0419    0.0000 H   0  0  0  0  0  0  0  0  0  0  0  0
   10.2617   -0.4080    0.0000 H   0  0  0  0  0  0  0  0  0  0  0  0
   11.0588   -0.4080    0.0000 H   0  0  0  0  0  0  0  0  0  0  0  0
   15.4579   -0.4080    0.0000 H   0  0  0  0  0  0  0  0  0  0  0  0
   16.2549   -0.4080    0.0000 H   0  0  0  0  0  0  0  0  0  0  0  0
   10.1928    1.0419    0.0000 H   0  0  0  0  0  0  0  0  0  0  0  0
    9.3957    1.0419    0.0000 H   0  0  0  0  0  0  0  0  0  0  0  0
   17.1210    1.0419    0.0000 H   0  0  0  0  0  0  0  0  0  0  0  0
   16.3239    1.0419    0.0000 H   0  0  0  0  0  0  0  0  0  0  0  0
    8.5297   -0.4080    0.0000 H   0  0  0  0  0  0  0  0  0  0  0  0
    9.3267   -0.4080    0.0000 H   0  0  0  0  0  0  0  0  0  0  0  0
   17.1899   -0.4080    0.0000 H   0  0  0  0  0  0  0  0  0  0  0  0
   17.9870   -0.4080    0.0000 H   0  0  0  0  0  0  0  0  0  0  0  0
    8.4607    1.0419    0.0000 H   0  0  0  0  0  0  0  0  0  0  0  0
    7.6637    1.0419    0.0000 H   0  0  0  0  0  0  0  0  0  0  0  0
   18.7645    0.0301    0.0000 H   0  0  0  0  0  0  0  0  0  0  0  0
   18.9914    0.8770    0.0000 H   0  0  0  0  0  0  0  0  0  0  0  0
   18.1445    1.1039    0.0000 H   0  0  0  0  0  0  0  0  0  0  0  0
    5.0656   -0.4080    0.0000 H   0  0  0  0  0  0  0  0  0  0  0  0
    5.8626   -0.4080    0.0000 H   0  0  0  0  0  0  0  0  0  0  0  0
    4.9966    1.0419    0.0000 H   0  0  0  0  0  0  0  0  0  0  0  0
    4.1996    1.0419    0.0000 H   0  0  0  0  0  0  0  0  0  0  0  0
  1  5  1  0  0  0  0
  1  6  2  0  0  0  0
  1  7  2  0  0  0  0
  1 23  1  0  0  0  0
  3 21  1  0  0  0  0
  3 22  1  0  0  0  0
  4 21  2  0  0  0  0
  8  9  1  0  0  0  0
  8 10  1  0  0  0  0
  8 24  1  0  0  0  0
  8 25  1  0  0  0  0
  9 11  1  0  0  0  0
  9 26  1  0  0  0  0
  9 27  1  0  0  0  0
 10 12  1  0  0  0  0
 10 28  1  0  0  0  0
 10 29  1  0  0  0  0
 11 13  1  0  0  0  0
 11 30  1  0  0  0  0
 11 31  1  0  0  0  0
 12 14  1  0  0  0  0
 12 32  1  0  0  0  0
 12 33  1  0  0  0  0
 13 15  1  0  0  0  0
 13 34  1  0  0  0  0
 13 35  1  0  0  0  0
 14 16  1  0  0  0  0
 14 36  1  0  0  0  0
 14 37  1  0  0  0  0
 15 17  1  0  0  0  0
 15 38  1  0  0  0  0
 15 39  1  0  0  0  0
 16 18  1  0  0  0  0
 16 40  1  0  0  0  0
 16 41  1  0  0  0  0
 17 19  1  0  0  0  0
 17 42  1  0  0  0  0
 17 43  1  0  0  0  0
 18 20  1  0  0  0  0
 18 44  1  0  0  0  0
 18 45  1  0  0  0  0
 19 21  1  0  0  0  0
 19 46  1  0  0  0  0
 19 47  1  0  0  0  0
 20 48  1  0  0  0  0
 20 49  1  0  0  0  0
 20 50  1  0  0  0  0
 22 23  1  0  0  0  0
 22 51  1  0  0  0  0
 22 52  1  0  0  0  0
 23 53  1  0  0  0  0
 23 54  1  0  0  0  0
M  CHG  2   2   1   5  -1
M  END
> <PUBCHEM_COMPOUND_CID>
73415784

> <PUBCHEM_COMPOUND_CANONICALIZED>
1

> <PUBCHEM_CACTVS_COMPLEXITY>
365

> <PUBCHEM_CACTVS_HBOND_ACCEPTOR>
5

> <PUBCHEM_CACTVS_HBOND_DONOR>
0

> <PUBCHEM_CACTVS_ROTATABLE_BOND>
16

> <PUBCHEM_CACTVS_SUBSKEYS>
AAADceB4OCBAAAAAAAAAAAAAAAAAAAAAAAAAAAAAAAAAAAAAAAAAGgQAAAAACACkwAKCCAAABAIIAACQCHBAAAAAAAAAAAEAAAAAABIAAAACAAAEAAAAAAGIyKCAAAAAAAAAAAAAAAAAAAAAAAAAAAAAAA==

> <PUBCHEM_IUPAC_OPENEYE_NAME>
sodium 2-tetradecanoyloxyethanesulfonate

> <PUBCHEM_IUPAC_CAS_NAME>
sodium 2-(1-oxotetradecoxy)ethanesulfonate

> <PUBCHEM_IUPAC_NAME_MARKUP>
sodium 2-tetradecanoyloxyethanesulfonate

> <PUBCHEM_IUPAC_NAME>
sodium 2-tetradecanoyloxyethanesulfonate

> <PUBCHEM_IUPAC_SYSTEMATIC_NAME>
sodium 2-tetradecanoyloxyethanesulfonate

> <PUBCHEM_IUPAC_TRADITIONAL_NAME>
sodium 2-tetradecanoyloxyethanesulfonate

> <PUBCHEM_IUPAC_INCHI>
InChI=1S/C16H32O5S.Na/c1-2-3-4-5-6-7-8-9-10-11-12-13-16(17)21-14-15-22(18,19)20;/h2-15H2,1H3,(H,18,19,20);/q;+1/p-1

> <PUBCHEM_IUPAC_INCHIKEY>
WEXQJKLTLYEHLQ-UHFFFAOYSA-M

> <PUBCHEM_EXACT_MASS>
358.17898954

> <PUBCHEM_MOLECULAR_FORMULA>
C16H31NaO5S

> <PUBCHEM_MOLECULAR_WEIGHT>
358.5

> <PUBCHEM_SMILES>
CCCCCCCCCCCCCC(=O)OCCS(=O)(=O)[O-].[Na+]

> <PUBCHEM_CONNECTIVITY_SMILES>
CCCCCCCCCCCCCC(=O)OCCS(=O)(=O)[O-].[Na+]

> <PUBCHEM_CACTVS_TPSA>
91.9

> <PUBCHEM_MONOISOTOPIC_WEIGHT>
358.17898954

> <PUBCHEM_TOTAL_CHARGE>
0

> <PUBCHEM_HEAVY_ATOM_COUNT>
23

> <PUBCHEM_ATOM_DEF_STEREO_COUNT>
0

> <PUBCHEM_ATOM_UDEF_STEREO_COUNT>
0

> <PUBCHEM_BOND_DEF_STEREO_COUNT>
0

> <PUBCHEM_BOND_UDEF_STEREO_COUNT>
0

> <PUBCHEM_ISOTOPIC_ATOM_COUNT>
0

> <PUBCHEM_COMPONENT_COUNT>
2

> <PUBCHEM_CACTVS_TAUTO_COUNT>
-1

> <PUBCHEM_NONSTANDARDBOND>
2  5  7

> <PUBCHEM_COORDINATE_TYPE>
1
5
255

$$$$
