735573
  -OEChem-05122608092D

 35 37  0     0  0  0  0  0  0999 V2000
    6.2619   -1.2990    0.0000 O   0  0  0  0  0  0  0  0  0  0  0  0
    5.2619    0.4330    0.0000 N   0  0  0  0  0  0  0  0  0  0  0  0
    4.6783    1.2378    0.0000 N   0  0  0  0  0  0  0  0  0  0  0  0
    4.6783   -0.3717    0.0000 N   0  0  0  0  0  0  0  0  0  0  0  0
    6.2619    0.4330    0.0000 C   0  0  0  0  0  0  0  0  0  0  0  0
    7.7619   -0.4330    0.0000 C   0  0  0  0  0  0  0  0  0  0  0  0
    6.7619   -0.4330    0.0000 C   0  0  0  0  0  0  0  0  0  0  0  0
    7.7619    1.2990    0.0000 C   0  0  0  0  0  0  0  0  0  0  0  0
    6.7619    1.2990    0.0000 C   0  0  0  0  0  0  0  0  0  0  0  0
    8.2619    0.4330    0.0000 C   0  0  0  0  0  0  0  0  0  0  0  0
    8.2619   -1.2990    0.0000 C   0  0  0  0  0  0  0  0  0  0  0  0
    3.7321    0.9330    0.0000 C   0  0  0  0  0  0  0  0  0  0  0  0
    3.7321   -0.0670    0.0000 C   0  0  0  0  0  0  0  0  0  0  0  0
    8.2619    2.1651    0.0000 C   0  0  0  0  0  0  0  0  0  0  0  0
    2.8660    1.4330    0.0000 C   0  0  0  0  0  0  0  0  0  0  0  0
    2.8660   -0.5670    0.0000 C   0  0  0  0  0  0  0  0  0  0  0  0
    9.2619   -1.2990    0.0000 C   0  0  0  0  0  0  0  0  0  0  0  0
    2.0000    0.9330    0.0000 C   0  0  0  0  0  0  0  0  0  0  0  0
    2.0000   -0.0670    0.0000 C   0  0  0  0  0  0  0  0  0  0  0  0
    9.7619   -2.1651    0.0000 C   0  0  0  0  0  0  0  0  0  0  0  0
    6.4519    1.8360    0.0000 H   0  0  0  0  0  0  0  0  0  0  0  0
    8.8819    0.4330    0.0000 H   0  0  0  0  0  0  0  0  0  0  0  0
    7.6793   -1.5111    0.0000 H   0  0  0  0  0  0  0  0  0  0  0  0
    8.3695   -1.9096    0.0000 H   0  0  0  0  0  0  0  0  0  0  0  0
    8.7988    1.8551    0.0000 H   0  0  0  0  0  0  0  0  0  0  0  0
    8.5719    2.7020    0.0000 H   0  0  0  0  0  0  0  0  0  0  0  0
    7.7249    2.4751    0.0000 H   0  0  0  0  0  0  0  0  0  0  0  0
    2.8660    2.0530    0.0000 H   0  0  0  0  0  0  0  0  0  0  0  0
    2.8660   -1.1870    0.0000 H   0  0  0  0  0  0  0  0  0  0  0  0
    9.5719   -0.7621    0.0000 H   0  0  0  0  0  0  0  0  0  0  0  0
    1.4631    1.2430    0.0000 H   0  0  0  0  0  0  0  0  0  0  0  0
    1.4631   -0.3770    0.0000 H   0  0  0  0  0  0  0  0  0  0  0  0
    6.5719   -1.8360    0.0000 H   0  0  0  0  0  0  0  0  0  0  0  0
    9.4519   -2.7020    0.0000 H   0  0  0  0  0  0  0  0  0  0  0  0
   10.3819   -2.1651    0.0000 H   0  0  0  0  0  0  0  0  0  0  0  0
  1  7  1  0  0  0  0
  1 33  1  0  0  0  0
  2  3  1  0  0  0  0
  2  4  1  0  0  0  0
  2  5  1  0  0  0  0
  3 12  2  0  0  0  0
  4 13  2  0  0  0  0
  5  7  1  0  0  0  0
  5  9  2  0  0  0  0
  6  7  2  0  0  0  0
  6 10  1  0  0  0  0
  6 11  1  0  0  0  0
  8  9  1  0  0  0  0
  8 10  2  0  0  0  0
  8 14  1  0  0  0  0
  9 21  1  0  0  0  0
 10 22  1  0  0  0  0
 11 17  1  0  0  0  0
 11 23  1  0  0  0  0
 11 24  1  0  0  0  0
 12 13  1  0  0  0  0
 12 15  1  0  0  0  0
 13 16  1  0  0  0  0
 14 25  1  0  0  0  0
 14 26  1  0  0  0  0
 14 27  1  0  0  0  0
 15 18  2  0  0  0  0
 15 28  1  0  0  0  0
 16 19  2  0  0  0  0
 16 29  1  0  0  0  0
 17 20  2  0  0  0  0
 17 30  1  0  0  0  0
 18 19  1  0  0  0  0
 18 31  1  0  0  0  0
 19 32  1  0  0  0  0
 20 34  1  0  0  0  0
 20 35  1  0  0  0  0
M  END
> <PUBCHEM_COMPOUND_CID>
735573

> <PUBCHEM_COMPOUND_CANONICALIZED>
1

> <PUBCHEM_CACTVS_COMPLEXITY>
335

> <PUBCHEM_CACTVS_HBOND_ACCEPTOR>
3

> <PUBCHEM_CACTVS_HBOND_DONOR>
1

> <PUBCHEM_CACTVS_ROTATABLE_BOND>
3

> <PUBCHEM_CACTVS_SUBSKEYS>
AAADccB7IAAAAAAAAAAAAAAAAAAAAWAAAAAwYAAAAAAAAFgB9AAAHgAICAAADAyBngAyxrAAAgCiAyRiQACSBAQgMgAYmCA1fJgKZqKSkZOAcABkyBEI2AeQwOAOIAACQAAIECBAAASAABAgQAAAAAAAAA==

> <PUBCHEM_IUPAC_OPENEYE_NAME>
2-allyl-6-(benzotriazol-2-yl)-4-methyl-phenol

> <PUBCHEM_IUPAC_CAS_NAME>
2-(2-benzotriazolyl)-4-methyl-6-prop-2-enylphenol

> <PUBCHEM_IUPAC_NAME_MARKUP>
2-(benzotriazol-2-yl)-4-methyl-6-prop-2-enylphenol

> <PUBCHEM_IUPAC_NAME>
2-(benzotriazol-2-yl)-4-methyl-6-prop-2-enylphenol

> <PUBCHEM_IUPAC_SYSTEMATIC_NAME>
2-(benzotriazol-2-yl)-4-methyl-6-prop-2-enyl-phenol

> <PUBCHEM_IUPAC_TRADITIONAL_NAME>
2-allyl-6-(benzotriazol-2-yl)-4-methyl-phenol

> <PUBCHEM_IUPAC_INCHI>
InChI=1S/C16H15N3O/c1-3-6-12-9-11(2)10-15(16(12)20)19-17-13-7-4-5-8-14(13)18-19/h3-5,7-10,20H,1,6H2,2H3

> <PUBCHEM_IUPAC_INCHIKEY>
YKONWVIRECCMQE-UHFFFAOYSA-N

> <PUBCHEM_XLOGP3>
5.4

> <PUBCHEM_EXACT_MASS>
265.121512110

> <PUBCHEM_MOLECULAR_FORMULA>
C16H15N3O

> <PUBCHEM_MOLECULAR_WEIGHT>
265.31

> <PUBCHEM_SMILES>
CC1=CC(=C(C(=C1)N2N=C3C=CC=CC3=N2)O)CC=C

> <PUBCHEM_CONNECTIVITY_SMILES>
CC1=CC(=C(C(=C1)N2N=C3C=CC=CC3=N2)O)CC=C

> <PUBCHEM_CACTVS_TPSA>
50.9

> <PUBCHEM_MONOISOTOPIC_WEIGHT>
265.121512110

> <PUBCHEM_TOTAL_CHARGE>
0

> <PUBCHEM_HEAVY_ATOM_COUNT>
20

> <PUBCHEM_ATOM_DEF_STEREO_COUNT>
0

> <PUBCHEM_ATOM_UDEF_STEREO_COUNT>
0

> <PUBCHEM_BOND_DEF_STEREO_COUNT>
0

> <PUBCHEM_BOND_UDEF_STEREO_COUNT>
0

> <PUBCHEM_ISOTOPIC_ATOM_COUNT>
0

> <PUBCHEM_COMPONENT_COUNT>
1

> <PUBCHEM_CACTVS_TAUTO_COUNT>
-1

> <PUBCHEM_COORDINATE_TYPE>
1
5
255

> <PUBCHEM_BONDANNOTATIONS>
12  13  8
12  15  8
13  16  8
15  18  8
16  19  8
18  19  8
2  3  8
2  4  8
3  12  8
4  13  8
5  7  8
5  9  8
6  10  8
6  7  8
8  10  8
8  9  8

$$$$
