736589
  -OEChem-05122609492D

 18 18  0     0  0  0  0  0  0999 V2000
    4.8063   -0.9749    0.0000 S   0  0  0  0  0  0  0  0  0  0  0  0
    3.1235   -0.7853    0.0000 N   0  0  0  0  0  0  0  0  0  0  0  0
    4.2470    0.6235    0.0000 N   0  0  0  0  0  0  0  0  0  0  0  0
    2.0000    0.6235    0.0000 C   0  0  0  0  0  0  0  0  0  0  0  0
    2.6235    1.4053    0.0000 C   0  0  0  0  0  0  0  0  0  0  0  0
    2.2225   -0.3514    0.0000 C   0  0  0  0  0  0  0  0  0  0  0  0
    3.6235    1.4053    0.0000 C   0  0  0  0  0  0  0  0  0  0  0  0
    4.0245   -0.3514    0.0000 C   0  0  0  0  0  0  0  0  0  0  0  0
    1.6134    1.1082    0.0000 H   0  0  0  0  0  0  0  0  0  0  0  0
    1.4414    0.3545    0.0000 H   0  0  0  0  0  0  0  0  0  0  0  0
    2.7615    2.0098    0.0000 H   0  0  0  0  0  0  0  0  0  0  0  0
    2.0649    1.6743    0.0000 H   0  0  0  0  0  0  0  0  0  0  0  0
    1.6025   -0.3514    0.0000 H   0  0  0  0  0  0  0  0  0  0  0  0
    2.0846   -0.9559    0.0000 H   0  0  0  0  0  0  0  0  0  0  0  0
    4.1821    1.6743    0.0000 H   0  0  0  0  0  0  0  0  0  0  0  0
    3.4855    2.0098    0.0000 H   0  0  0  0  0  0  0  0  0  0  0  0
    3.1235   -1.4053    0.0000 H   0  0  0  0  0  0  0  0  0  0  0  0
    4.8514    0.7615    0.0000 H   0  0  0  0  0  0  0  0  0  0  0  0
  1  8  2  0  0  0  0
  2  6  1  0  0  0  0
  2  8  1  0  0  0  0
  2 17  1  0  0  0  0
  3  7  1  0  0  0  0
  3  8  1  0  0  0  0
  3 18  1  0  0  0  0
  4  5  1  0  0  0  0
  4  6  1  0  0  0  0
  4  9  1  0  0  0  0
  4 10  1  0  0  0  0
  5  7  1  0  0  0  0
  5 11  1  0  0  0  0
  5 12  1  0  0  0  0
  6 13  1  0  0  0  0
  6 14  1  0  0  0  0
  7 15  1  0  0  0  0
  7 16  1  0  0  0  0
M  END
> <PUBCHEM_COMPOUND_CID>
736589

> <PUBCHEM_COMPOUND_CANONICALIZED>
1

> <PUBCHEM_CACTVS_COMPLEXITY>
82.4

> <PUBCHEM_CACTVS_HBOND_ACCEPTOR>
1

> <PUBCHEM_CACTVS_HBOND_DONOR>
2

> <PUBCHEM_CACTVS_ROTATABLE_BOND>
0

> <PUBCHEM_CACTVS_SUBSKEYS>
AAADccBjAABAAAAAAAAAAAAAAAAAAAAAAAAAAAAABYAAAAAAAAAAHAQQAAAACADBAAQBAALAAAAEAAAAAAAAAAAAAAkAAIAIAACAAAAAgAAEAAAIEAIAAAAAAAAAAAAAAAAAAAAAAAAAAAAAAAAAAAAAAA==

> <PUBCHEM_IUPAC_OPENEYE_NAME>
1,3-diazepane-2-thione

> <PUBCHEM_IUPAC_CAS_NAME>
1,3-diazepane-2-thione

> <PUBCHEM_IUPAC_NAME_MARKUP>
1,3-diazepane-2-thione

> <PUBCHEM_IUPAC_NAME>
1,3-diazepane-2-thione

> <PUBCHEM_IUPAC_SYSTEMATIC_NAME>
1,3-diazepane-2-thione

> <PUBCHEM_IUPAC_TRADITIONAL_NAME>
1,3-diazepane-2-thione

> <PUBCHEM_IUPAC_INCHI>
InChI=1S/C5H10N2S/c8-5-6-3-1-2-4-7-5/h1-4H2,(H2,6,7,8)

> <PUBCHEM_IUPAC_INCHIKEY>
ZLJLVKBAMJHNJH-UHFFFAOYSA-N

> <PUBCHEM_XLOGP3>
-0.3

> <PUBCHEM_EXACT_MASS>
130.05646950

> <PUBCHEM_MOLECULAR_FORMULA>
C5H10N2S

> <PUBCHEM_MOLECULAR_WEIGHT>
130.21

> <PUBCHEM_SMILES>
C1CCNC(=S)NC1

> <PUBCHEM_CONNECTIVITY_SMILES>
C1CCNC(=S)NC1

> <PUBCHEM_CACTVS_TPSA>
56.2

> <PUBCHEM_MONOISOTOPIC_WEIGHT>
130.05646950

> <PUBCHEM_TOTAL_CHARGE>
0

> <PUBCHEM_HEAVY_ATOM_COUNT>
8

> <PUBCHEM_ATOM_DEF_STEREO_COUNT>
0

> <PUBCHEM_ATOM_UDEF_STEREO_COUNT>
0

> <PUBCHEM_BOND_DEF_STEREO_COUNT>
0

> <PUBCHEM_BOND_UDEF_STEREO_COUNT>
0

> <PUBCHEM_ISOTOPIC_ATOM_COUNT>
0

> <PUBCHEM_COMPONENT_COUNT>
1

> <PUBCHEM_CACTVS_TAUTO_COUNT>
-1

> <PUBCHEM_COORDINATE_TYPE>
1
5
255

$$$$
