73854
  -OEChem-05122609562D

 42 41  0     0  0  0  0  0  0999 V2000
    4.5981   -1.0306    0.0000 O   0  0  0  0  0  0  0  0  0  0  0  0
    8.0622   -1.0306    0.0000 O   0  0  0  0  0  0  0  0  0  0  0  0
    6.3301    0.7015    0.0000 O   0  0  0  0  0  0  0  0  0  0  0  0
    6.3301   -2.7626    0.0000 O   0  0  0  0  0  0  0  0  0  0  0  0
    6.3301   -1.0306    0.0000 C   0  0  0  0  0  0  0  0  0  0  0  0
    5.4641   -1.5306    0.0000 C   0  0  0  0  0  0  0  0  0  0  0  0
    7.1962   -0.5306    0.0000 C   0  0  0  0  0  0  0  0  0  0  0  0
    5.8301   -0.1645    0.0000 C   0  0  0  0  0  0  0  0  0  0  0  0
    6.8301   -1.8966    0.0000 C   0  0  0  0  0  0  0  0  0  0  0  0
    3.7321   -1.5306    0.0000 C   0  0  0  0  0  0  0  0  0  0  0  0
    8.9282   -0.5306    0.0000 C   0  0  0  0  0  0  0  0  0  0  0  0
    5.8301    1.5675    0.0000 C   0  0  0  0  0  0  0  0  0  0  0  0
    2.8660   -1.0306    0.0000 C   0  0  0  0  0  0  0  0  0  0  0  0
    9.7942   -1.0306    0.0000 C   0  0  0  0  0  0  0  0  0  0  0  0
    6.3301    2.4335    0.0000 C   0  0  0  0  0  0  0  0  0  0  0  0
    2.0000   -1.5306    0.0000 C   0  0  0  0  0  0  0  0  0  0  0  0
   10.6603   -0.5306    0.0000 C   0  0  0  0  0  0  0  0  0  0  0  0
    5.8301    3.2996    0.0000 C   0  0  0  0  0  0  0  0  0  0  0  0
    5.0656   -2.0055    0.0000 H   0  0  0  0  0  0  0  0  0  0  0  0
    5.8626   -2.0055    0.0000 H   0  0  0  0  0  0  0  0  0  0  0  0
    7.5947   -0.0556    0.0000 H   0  0  0  0  0  0  0  0  0  0  0  0
    6.7976   -0.0556    0.0000 H   0  0  0  0  0  0  0  0  0  0  0  0
    5.3552    0.2340    0.0000 H   0  0  0  0  0  0  0  0  0  0  0  0
    5.3552   -0.5631    0.0000 H   0  0  0  0  0  0  0  0  0  0  0  0
    7.3051   -2.2951    0.0000 H   0  0  0  0  0  0  0  0  0  0  0  0
    7.3051   -1.4981    0.0000 H   0  0  0  0  0  0  0  0  0  0  0  0
    6.6401   -3.2996    0.0000 H   0  0  0  0  0  0  0  0  0  0  0  0
    3.3335   -2.0055    0.0000 H   0  0  0  0  0  0  0  0  0  0  0  0
    4.1306   -2.0055    0.0000 H   0  0  0  0  0  0  0  0  0  0  0  0
    9.3267   -0.0556    0.0000 H   0  0  0  0  0  0  0  0  0  0  0  0
    8.5297   -0.0556    0.0000 H   0  0  0  0  0  0  0  0  0  0  0  0
    5.3552    1.9660    0.0000 H   0  0  0  0  0  0  0  0  0  0  0  0
    5.3552    1.1690    0.0000 H   0  0  0  0  0  0  0  0  0  0  0  0
    2.8660   -0.4106    0.0000 H   0  0  0  0  0  0  0  0  0  0  0  0
    9.7942   -1.6506    0.0000 H   0  0  0  0  0  0  0  0  0  0  0  0
    6.9501    2.4335    0.0000 H   0  0  0  0  0  0  0  0  0  0  0  0
    1.4631   -1.2206    0.0000 H   0  0  0  0  0  0  0  0  0  0  0  0
    2.0000   -2.1506    0.0000 H   0  0  0  0  0  0  0  0  0  0  0  0
   11.1972   -0.8406    0.0000 H   0  0  0  0  0  0  0  0  0  0  0  0
   10.6603    0.0894    0.0000 H   0  0  0  0  0  0  0  0  0  0  0  0
    6.1401    3.8365    0.0000 H   0  0  0  0  0  0  0  0  0  0  0  0
    5.2101    3.2996    0.0000 H   0  0  0  0  0  0  0  0  0  0  0  0
  1  6  1  0  0  0  0
  1 10  1  0  0  0  0
  2  7  1  0  0  0  0
  2 11  1  0  0  0  0
  3  8  1  0  0  0  0
  3 12  1  0  0  0  0
  4  9  1  0  0  0  0
  4 27  1  0  0  0  0
  5  6  1  0  0  0  0
  5  7  1  0  0  0  0
  5  8  1  0  0  0  0
  5  9  1  0  0  0  0
  6 19  1  0  0  0  0
  6 20  1  0  0  0  0
  7 21  1  0  0  0  0
  7 22  1  0  0  0  0
  8 23  1  0  0  0  0
  8 24  1  0  0  0  0
  9 25  1  0  0  0  0
  9 26  1  0  0  0  0
 10 13  1  0  0  0  0
 10 28  1  0  0  0  0
 10 29  1  0  0  0  0
 11 14  1  0  0  0  0
 11 30  1  0  0  0  0
 11 31  1  0  0  0  0
 12 15  1  0  0  0  0
 12 32  1  0  0  0  0
 12 33  1  0  0  0  0
 13 16  2  0  0  0  0
 13 34  1  0  0  0  0
 14 17  2  0  0  0  0
 14 35  1  0  0  0  0
 15 18  2  0  0  0  0
 15 36  1  0  0  0  0
 16 37  1  0  0  0  0
 16 38  1  0  0  0  0
 17 39  1  0  0  0  0
 17 40  1  0  0  0  0
 18 41  1  0  0  0  0
 18 42  1  0  0  0  0
M  END
> <PUBCHEM_COMPOUND_CID>
73854

> <PUBCHEM_COMPOUND_CANONICALIZED>
1

> <PUBCHEM_CACTVS_COMPLEXITY>
202

> <PUBCHEM_CACTVS_HBOND_ACCEPTOR>
4

> <PUBCHEM_CACTVS_HBOND_DONOR>
1

> <PUBCHEM_CACTVS_ROTATABLE_BOND>
13

> <PUBCHEM_CACTVS_SUBSKEYS>
AAADceBwOAAAAAAAAAAAAAAAAAAAAAAAAAAAAAAAAAAAAAAAAAAAGgAACAAADgCggAIAAAAABgCAACBCAAAAAAAAAAAIAAAAAAAAFAAAIQACQAABAAAAIAAAAAAAAAAAAAAAAAAAAAAAAAAAAAAAAAAAAA==

> <PUBCHEM_IUPAC_OPENEYE_NAME>
3-allyloxy-2,2-bis(allyloxymethyl)propan-1-ol

> <PUBCHEM_IUPAC_CAS_NAME>
3-prop-2-enoxy-2,2-bis(prop-2-enoxymethyl)-1-propanol

> <PUBCHEM_IUPAC_NAME_MARKUP>
3-prop-2-enoxy-2,2-bis(prop-2-enoxymethyl)propan-1-ol

> <PUBCHEM_IUPAC_NAME>
3-prop-2-enoxy-2,2-bis(prop-2-enoxymethyl)propan-1-ol

> <PUBCHEM_IUPAC_SYSTEMATIC_NAME>
3-prop-2-enoxy-2,2-bis(prop-2-enoxymethyl)propan-1-ol

> <PUBCHEM_IUPAC_TRADITIONAL_NAME>
3-allyloxy-2,2-bis(allyloxymethyl)propan-1-ol

> <PUBCHEM_IUPAC_INCHI>
InChI=1S/C14H24O4/c1-4-7-16-11-14(10-15,12-17-8-5-2)13-18-9-6-3/h4-6,15H,1-3,7-13H2

> <PUBCHEM_IUPAC_INCHIKEY>
FYRWKWGEFZTOQI-UHFFFAOYSA-N

> <PUBCHEM_XLOGP3_AA>
1.1

> <PUBCHEM_EXACT_MASS>
256.16745924

> <PUBCHEM_MOLECULAR_FORMULA>
C14H24O4

> <PUBCHEM_MOLECULAR_WEIGHT>
256.34

> <PUBCHEM_SMILES>
C=CCOCC(CO)(COCC=C)COCC=C

> <PUBCHEM_CONNECTIVITY_SMILES>
C=CCOCC(CO)(COCC=C)COCC=C

> <PUBCHEM_CACTVS_TPSA>
47.9

> <PUBCHEM_MONOISOTOPIC_WEIGHT>
256.16745924

> <PUBCHEM_TOTAL_CHARGE>
0

> <PUBCHEM_HEAVY_ATOM_COUNT>
18

> <PUBCHEM_ATOM_DEF_STEREO_COUNT>
0

> <PUBCHEM_ATOM_UDEF_STEREO_COUNT>
0

> <PUBCHEM_BOND_DEF_STEREO_COUNT>
0

> <PUBCHEM_BOND_UDEF_STEREO_COUNT>
0

> <PUBCHEM_ISOTOPIC_ATOM_COUNT>
0

> <PUBCHEM_COMPONENT_COUNT>
1

> <PUBCHEM_CACTVS_TAUTO_COUNT>
-1

> <PUBCHEM_COORDINATE_TYPE>
1
5
255

$$$$
