7390
  -OEChem-05122609132D

 27 27  0     0  0  0  0  0  0999 V2000
    3.0000    1.5000    0.0000 C   0  0  0  0  0  0  0  0  0  0  0  0
    3.0000    0.5000    0.0000 C   0  0  0  0  0  0  0  0  0  0  0  0
    3.0000    2.5000    0.0000 C   0  0  0  0  0  0  0  0  0  0  0  0
    4.0000    1.5000    0.0000 C   0  0  0  0  0  0  0  0  0  0  0  0
    2.0000    1.5000    0.0000 C   0  0  0  0  0  0  0  0  0  0  0  0
    2.1340    0.0000    0.0000 C   0  0  0  0  0  0  0  0  0  0  0  0
    3.8660   -0.0000    0.0000 C   0  0  0  0  0  0  0  0  0  0  0  0
    3.0000   -1.5000    0.0000 C   0  0  0  0  0  0  0  0  0  0  0  0
    2.1340   -1.0000    0.0000 C   0  0  0  0  0  0  0  0  0  0  0  0
    3.8660   -1.0000    0.0000 C   0  0  0  0  0  0  0  0  0  0  0  0
    3.0000   -2.5000    0.0000 C   0  0  0  0  0  0  0  0  0  0  0  0
    3.6200    2.5000    0.0000 H   0  0  0  0  0  0  0  0  0  0  0  0
    3.0000    3.1200    0.0000 H   0  0  0  0  0  0  0  0  0  0  0  0
    2.3800    2.5000    0.0000 H   0  0  0  0  0  0  0  0  0  0  0  0
    4.0000    0.8800    0.0000 H   0  0  0  0  0  0  0  0  0  0  0  0
    4.6200    1.5000    0.0000 H   0  0  0  0  0  0  0  0  0  0  0  0
    4.0000    2.1200    0.0000 H   0  0  0  0  0  0  0  0  0  0  0  0
    2.0000    2.1200    0.0000 H   0  0  0  0  0  0  0  0  0  0  0  0
    1.3800    1.5000    0.0000 H   0  0  0  0  0  0  0  0  0  0  0  0
    2.0000    0.8800    0.0000 H   0  0  0  0  0  0  0  0  0  0  0  0
    1.5970    0.3100    0.0000 H   0  0  0  0  0  0  0  0  0  0  0  0
    4.4030    0.3100    0.0000 H   0  0  0  0  0  0  0  0  0  0  0  0
    1.5970   -1.3100    0.0000 H   0  0  0  0  0  0  0  0  0  0  0  0
    4.4030   -1.3100    0.0000 H   0  0  0  0  0  0  0  0  0  0  0  0
    2.3800   -2.5000    0.0000 H   0  0  0  0  0  0  0  0  0  0  0  0
    3.0000   -3.1200    0.0000 H   0  0  0  0  0  0  0  0  0  0  0  0
    3.6200   -2.5000    0.0000 H   0  0  0  0  0  0  0  0  0  0  0  0
  1  2  1  0  0  0  0
  1  3  1  0  0  0  0
  1  4  1  0  0  0  0
  1  5  1  0  0  0  0
  2  6  2  0  0  0  0
  2  7  1  0  0  0  0
  3 12  1  0  0  0  0
  3 13  1  0  0  0  0
  3 14  1  0  0  0  0
  4 15  1  0  0  0  0
  4 16  1  0  0  0  0
  4 17  1  0  0  0  0
  5 18  1  0  0  0  0
  5 19  1  0  0  0  0
  5 20  1  0  0  0  0
  6  9  1  0  0  0  0
  6 21  1  0  0  0  0
  7 10  2  0  0  0  0
  7 22  1  0  0  0  0
  8  9  2  0  0  0  0
  8 10  1  0  0  0  0
  8 11  1  0  0  0  0
  9 23  1  0  0  0  0
 10 24  1  0  0  0  0
 11 25  1  0  0  0  0
 11 26  1  0  0  0  0
 11 27  1  0  0  0  0
M  END
> <PUBCHEM_COMPOUND_CID>
7390

> <PUBCHEM_COMPOUND_CANONICALIZED>
1

> <PUBCHEM_CACTVS_COMPLEXITY>
110

> <PUBCHEM_CACTVS_HBOND_ACCEPTOR>
0

> <PUBCHEM_CACTVS_HBOND_DONOR>
0

> <PUBCHEM_CACTVS_ROTATABLE_BOND>
1

> <PUBCHEM_CACTVS_SUBSKEYS>
AAADceBwAAAAAAAAAAAAAAAAAAAAAAAAAAAwAAAAAAAAAAABAAAAGAAAAAAADgCAGAAyAIAAAACAAiBCAAACAAAgAAAIiAAAAIgIICKAERCAIAAggAAIiAcAgMAPwAAAAAAAAACAAAAAAAAAAAAAAAAAAA==

> <PUBCHEM_IUPAC_OPENEYE_NAME>
1-tert-butyl-4-methyl-benzene

> <PUBCHEM_IUPAC_CAS_NAME>
1-tert-butyl-4-methylbenzene

> <PUBCHEM_IUPAC_NAME_MARKUP>
1-<I>tert</I>-butyl-4-methylbenzene

> <PUBCHEM_IUPAC_NAME>
1-tert-butyl-4-methylbenzene

> <PUBCHEM_IUPAC_SYSTEMATIC_NAME>
1-tert-butyl-4-methyl-benzene

> <PUBCHEM_IUPAC_TRADITIONAL_NAME>
1-tert-butyl-4-methyl-benzene

> <PUBCHEM_IUPAC_INCHI>
InChI=1S/C11H16/c1-9-5-7-10(8-6-9)11(2,3)4/h5-8H,1-4H3

> <PUBCHEM_IUPAC_INCHIKEY>
QCWXDVFBZVHKLV-UHFFFAOYSA-N

> <PUBCHEM_XLOGP3>
4.5

> <PUBCHEM_EXACT_MASS>
148.125200510

> <PUBCHEM_MOLECULAR_FORMULA>
C11H16

> <PUBCHEM_MOLECULAR_WEIGHT>
148.24

> <PUBCHEM_SMILES>
CC1=CC=C(C=C1)C(C)(C)C

> <PUBCHEM_CONNECTIVITY_SMILES>
CC1=CC=C(C=C1)C(C)(C)C

> <PUBCHEM_CACTVS_TPSA>
0

> <PUBCHEM_MONOISOTOPIC_WEIGHT>
148.125200510

> <PUBCHEM_TOTAL_CHARGE>
0

> <PUBCHEM_HEAVY_ATOM_COUNT>
11

> <PUBCHEM_ATOM_DEF_STEREO_COUNT>
0

> <PUBCHEM_ATOM_UDEF_STEREO_COUNT>
0

> <PUBCHEM_BOND_DEF_STEREO_COUNT>
0

> <PUBCHEM_BOND_UDEF_STEREO_COUNT>
0

> <PUBCHEM_ISOTOPIC_ATOM_COUNT>
0

> <PUBCHEM_COMPONENT_COUNT>
1

> <PUBCHEM_CACTVS_TAUTO_COUNT>
-1

> <PUBCHEM_COORDINATE_TYPE>
1
5
255

> <PUBCHEM_BONDANNOTATIONS>
2  6  8
2  7  8
6  9  8
7  10  8
8  10  8
8  9  8

$$$$
