74077
  -OEChem-05122609212D

 16 17  0     0  0  0  0  0  0999 V2000
    3.7321    2.0000    0.0000 Cl  0  0  0  0  0  0  0  0  0  0  0  0
    3.7321   -2.0000    0.0000 Cl  0  0  0  0  0  0  0  0  0  0  0  0
    2.0000    1.0000    0.0000 Cl  0  0  0  0  0  0  0  0  0  0  0  0
    2.0000   -1.0000    0.0000 Cl  0  0  0  0  0  0  0  0  0  0  0  0
    5.8550    1.7553    0.0000 O   0  0  0  0  0  0  0  0  0  0  0  0
    5.8550   -1.7553    0.0000 O   0  0  0  0  0  0  0  0  0  0  0  0
    6.1279   -0.0000    0.0000 N   0  0  0  0  0  0  0  0  0  0  0  0
    4.5981    0.5000    0.0000 C   0  0  0  0  0  0  0  0  0  0  0  0
    4.5981   -0.5000    0.0000 C   0  0  0  0  0  0  0  0  0  0  0  0
    3.7321    1.0000    0.0000 C   0  0  0  0  0  0  0  0  0  0  0  0
    3.7321   -1.0000    0.0000 C   0  0  0  0  0  0  0  0  0  0  0  0
    5.5443    0.8047    0.0000 C   0  0  0  0  0  0  0  0  0  0  0  0
    5.5443   -0.8047    0.0000 C   0  0  0  0  0  0  0  0  0  0  0  0
    2.8660    0.5000    0.0000 C   0  0  0  0  0  0  0  0  0  0  0  0
    2.8660   -0.5000    0.0000 C   0  0  0  0  0  0  0  0  0  0  0  0
    6.7479   -0.0000    0.0000 H   0  0  0  0  0  0  0  0  0  0  0  0
  1 10  1  0  0  0  0
  2 11  1  0  0  0  0
  3 14  1  0  0  0  0
  4 15  1  0  0  0  0
  5 12  2  0  0  0  0
  6 13  2  0  0  0  0
  7 12  1  0  0  0  0
  7 13  1  0  0  0  0
  7 16  1  0  0  0  0
  8  9  2  0  0  0  0
  8 10  1  0  0  0  0
  8 12  1  0  0  0  0
  9 11  1  0  0  0  0
  9 13  1  0  0  0  0
 10 14  2  0  0  0  0
 11 15  2  0  0  0  0
 14 15  1  0  0  0  0
M  END
> <PUBCHEM_COMPOUND_CID>
74077

> <PUBCHEM_COMPOUND_CANONICALIZED>
1

> <PUBCHEM_CACTVS_COMPLEXITY>
294

> <PUBCHEM_CACTVS_HBOND_ACCEPTOR>
2

> <PUBCHEM_CACTVS_HBOND_DONOR>
1

> <PUBCHEM_CACTVS_ROTATABLE_BOND>
0

> <PUBCHEM_CACTVS_SUBSKEYS>
AAADcQByMAAHAAAAAAAAAAAAAAAAAWAAAAAwAAAAAAAAAFgBAAAADgIQAAAADAIBmCAAAILAAACIAgFQEACCAAAkBAAAikEABsgIIDKBlhGEIQhghCCIjQcdiICOhAAQIACRAAQIACBAASIACAAAAAAAAA==

> <PUBCHEM_IUPAC_OPENEYE_NAME>
4,5,6,7-tetrachloroisoindoline-1,3-dione

> <PUBCHEM_IUPAC_CAS_NAME>
4,5,6,7-tetrachloroisoindole-1,3-dione

> <PUBCHEM_IUPAC_NAME_MARKUP>
4,5,6,7-tetrachloroisoindole-1,3-dione

> <PUBCHEM_IUPAC_NAME>
4,5,6,7-tetrachloroisoindole-1,3-dione

> <PUBCHEM_IUPAC_SYSTEMATIC_NAME>
4,5,6,7-tetrakis(chloranyl)isoindole-1,3-dione

> <PUBCHEM_IUPAC_TRADITIONAL_NAME>
4,5,6,7-tetrachloroisoindoline-1,3-quinone

> <PUBCHEM_IUPAC_INCHI>
InChI=1S/C8HCl4NO2/c9-3-1-2(8(15)13-7(1)14)4(10)6(12)5(3)11/h(H,13,14,15)

> <PUBCHEM_IUPAC_INCHIKEY>
LPUUYZVKCMCHLO-UHFFFAOYSA-N

> <PUBCHEM_XLOGP3_AA>
3.2

> <PUBCHEM_EXACT_MASS>
284.873189

> <PUBCHEM_MOLECULAR_FORMULA>
C8HCl4NO2

> <PUBCHEM_MOLECULAR_WEIGHT>
284.9

> <PUBCHEM_SMILES>
C12=C(C(=C(C(=C1Cl)Cl)Cl)Cl)C(=O)NC2=O

> <PUBCHEM_CONNECTIVITY_SMILES>
C12=C(C(=C(C(=C1Cl)Cl)Cl)Cl)C(=O)NC2=O

> <PUBCHEM_CACTVS_TPSA>
46.2

> <PUBCHEM_MONOISOTOPIC_WEIGHT>
282.876139

> <PUBCHEM_TOTAL_CHARGE>
0

> <PUBCHEM_HEAVY_ATOM_COUNT>
15

> <PUBCHEM_ATOM_DEF_STEREO_COUNT>
0

> <PUBCHEM_ATOM_UDEF_STEREO_COUNT>
0

> <PUBCHEM_BOND_DEF_STEREO_COUNT>
0

> <PUBCHEM_BOND_UDEF_STEREO_COUNT>
0

> <PUBCHEM_ISOTOPIC_ATOM_COUNT>
0

> <PUBCHEM_COMPONENT_COUNT>
1

> <PUBCHEM_CACTVS_TAUTO_COUNT>
-1

> <PUBCHEM_COORDINATE_TYPE>
1
5
255

> <PUBCHEM_BONDANNOTATIONS>
10  14  8
11  15  8
14  15  8
8  10  8
8  9  8
9  11  8

$$$$
