74534
  -OEChem-05122609432D

 30 29  0     0  0  0  0  0  0999 V2000
    7.6962   -1.2990    0.0000 F   0  0  0  0  0  0  0  0  0  0  0  0
    6.6962    0.4330    0.0000 F   0  0  0  0  0  0  0  0  0  0  0  0
    7.5622    0.9330    0.0000 F   0  0  0  0  0  0  0  0  0  0  0  0
    8.5622   -0.7990    0.0000 F   0  0  0  0  0  0  0  0  0  0  0  0
    8.4282    1.4330    0.0000 F   0  0  0  0  0  0  0  0  0  0  0  0
    9.4282   -0.2990    0.0000 F   0  0  0  0  0  0  0  0  0  0  0  0
   10.6603    1.5670    0.0000 F   0  0  0  0  0  0  0  0  0  0  0  0
   10.2942    0.2010    0.0000 F   0  0  0  0  0  0  0  0  0  0  0  0
    9.2942    1.9330    0.0000 F   0  0  0  0  0  0  0  0  0  0  0  0
    4.5981   -0.9330    0.0000 O   0  0  0  0  0  0  0  0  0  0  0  0
    3.7321    0.5670    0.0000 O   0  0  0  0  0  0  0  0  0  0  0  0
    7.1962   -0.4330    0.0000 C   0  0  0  0  0  0  0  0  0  0  0  0
    8.0622    0.0670    0.0000 C   0  0  0  0  0  0  0  0  0  0  0  0
    6.3301   -0.9330    0.0000 C   0  0  0  0  0  0  0  0  0  0  0  0
    8.9282    0.5670    0.0000 C   0  0  0  0  0  0  0  0  0  0  0  0
    5.4641   -0.4330    0.0000 C   0  0  0  0  0  0  0  0  0  0  0  0
    9.7942    1.0670    0.0000 C   0  0  0  0  0  0  0  0  0  0  0  0
    3.7321   -0.4330    0.0000 C   0  0  0  0  0  0  0  0  0  0  0  0
    2.8660   -0.9330    0.0000 C   0  0  0  0  0  0  0  0  0  0  0  0
    2.0000   -0.4330    0.0000 C   0  0  0  0  0  0  0  0  0  0  0  0
    2.8660   -1.9330    0.0000 C   0  0  0  0  0  0  0  0  0  0  0  0
    5.9316   -1.4080    0.0000 H   0  0  0  0  0  0  0  0  0  0  0  0
    6.7287   -1.4080    0.0000 H   0  0  0  0  0  0  0  0  0  0  0  0
    5.8626    0.0419    0.0000 H   0  0  0  0  0  0  0  0  0  0  0  0
    5.0656    0.0419    0.0000 H   0  0  0  0  0  0  0  0  0  0  0  0
    2.3100    0.1039    0.0000 H   0  0  0  0  0  0  0  0  0  0  0  0
    1.4631   -0.1230    0.0000 H   0  0  0  0  0  0  0  0  0  0  0  0
    1.6900   -0.9699    0.0000 H   0  0  0  0  0  0  0  0  0  0  0  0
    2.3291   -2.2430    0.0000 H   0  0  0  0  0  0  0  0  0  0  0  0
    3.4030   -2.2430    0.0000 H   0  0  0  0  0  0  0  0  0  0  0  0
  1 12  1  0  0  0  0
  2 12  1  0  0  0  0
  3 13  1  0  0  0  0
  4 13  1  0  0  0  0
  5 15  1  0  0  0  0
  6 15  1  0  0  0  0
  7 17  1  0  0  0  0
  8 17  1  0  0  0  0
  9 17  1  0  0  0  0
 10 16  1  0  0  0  0
 10 18  1  0  0  0  0
 11 18  2  0  0  0  0
 12 13  1  0  0  0  0
 12 14  1  0  0  0  0
 13 15  1  0  0  0  0
 14 16  1  0  0  0  0
 14 22  1  0  0  0  0
 14 23  1  0  0  0  0
 15 17  1  0  0  0  0
 16 24  1  0  0  0  0
 16 25  1  0  0  0  0
 18 19  1  0  0  0  0
 19 20  1  0  0  0  0
 19 21  2  0  0  0  0
 20 26  1  0  0  0  0
 20 27  1  0  0  0  0
 20 28  1  0  0  0  0
 21 29  1  0  0  0  0
 21 30  1  0  0  0  0
M  END
> <PUBCHEM_COMPOUND_CID>
74534

> <PUBCHEM_COMPOUND_CANONICALIZED>
1

> <PUBCHEM_CACTVS_COMPLEXITY>
411

> <PUBCHEM_CACTVS_HBOND_ACCEPTOR>
11

> <PUBCHEM_CACTVS_HBOND_DONOR>
0

> <PUBCHEM_CACTVS_ROTATABLE_BOND>
7

> <PUBCHEM_CACTVS_SUBSKEYS>
AAADccBwMcAAAAAAAAAAAAAAAAAAAAAAAAAAAAAAAAAAAAAAAAAAGwAAAAAADACggBICCAAABACIAgDSCAAAAAAAAAAAAAEAAEAABAIAIQACAAAEAAAAIIGAQAAAAAAAAAAAAAAAAAAAAAAAAAAAAAAAAA==

> <PUBCHEM_IUPAC_OPENEYE_NAME>
3,3,4,4,5,5,6,6,6-nonafluorohexyl 2-methylprop-2-enoate

> <PUBCHEM_IUPAC_CAS_NAME>
2-methyl-2-propenoic acid 3,3,4,4,5,5,6,6,6-nonafluorohexyl ester

> <PUBCHEM_IUPAC_NAME_MARKUP>
3,3,4,4,5,5,6,6,6-nonafluorohexyl 2-methylprop-2-enoate

> <PUBCHEM_IUPAC_NAME>
3,3,4,4,5,5,6,6,6-nonafluorohexyl 2-methylprop-2-enoate

> <PUBCHEM_IUPAC_SYSTEMATIC_NAME>
3,3,4,4,5,5,6,6,6-nonakis(fluoranyl)hexyl 2-methylprop-2-enoate

> <PUBCHEM_IUPAC_TRADITIONAL_NAME>
2-methylacrylic acid 3,3,4,4,5,5,6,6,6-nonafluorohexyl ester

> <PUBCHEM_IUPAC_INCHI>
InChI=1S/C10H9F9O2/c1-5(2)6(20)21-4-3-7(11,12)8(13,14)9(15,16)10(17,18)19/h1,3-4H2,2H3

> <PUBCHEM_IUPAC_INCHIKEY>
TYNRPOFACABVSI-UHFFFAOYSA-N

> <PUBCHEM_XLOGP3_AA>
4.6

> <PUBCHEM_EXACT_MASS>
332.04588298

> <PUBCHEM_MOLECULAR_FORMULA>
C10H9F9O2

> <PUBCHEM_MOLECULAR_WEIGHT>
332.16

> <PUBCHEM_SMILES>
CC(=C)C(=O)OCCC(C(C(C(F)(F)F)(F)F)(F)F)(F)F

> <PUBCHEM_CONNECTIVITY_SMILES>
CC(=C)C(=O)OCCC(C(C(C(F)(F)F)(F)F)(F)F)(F)F

> <PUBCHEM_CACTVS_TPSA>
26.3

> <PUBCHEM_MONOISOTOPIC_WEIGHT>
332.04588298

> <PUBCHEM_TOTAL_CHARGE>
0

> <PUBCHEM_HEAVY_ATOM_COUNT>
21

> <PUBCHEM_ATOM_DEF_STEREO_COUNT>
0

> <PUBCHEM_ATOM_UDEF_STEREO_COUNT>
0

> <PUBCHEM_BOND_DEF_STEREO_COUNT>
0

> <PUBCHEM_BOND_UDEF_STEREO_COUNT>
0

> <PUBCHEM_ISOTOPIC_ATOM_COUNT>
0

> <PUBCHEM_COMPONENT_COUNT>
1

> <PUBCHEM_CACTVS_TAUTO_COUNT>
-1

> <PUBCHEM_COORDINATE_TYPE>
1
5
255

$$$$
