74544
  -OEChem-05122608402D

 26 25  0     0  0  0  0  0  0999 V2000
    5.4641   -0.2685    0.0000 P   0  0  0  0  0  0  0  0  0  0  0  0
    6.3301    0.2315    0.0000 O   0  0  0  0  0  0  0  0  0  0  0  0
    4.5981   -0.7685    0.0000 O   0  0  0  0  0  0  0  0  0  0  0  0
    4.9641    0.5976    0.0000 O   0  0  0  0  0  0  0  0  0  0  0  0
    5.9641   -1.1345    0.0000 O   0  0  0  0  0  0  0  0  0  0  0  0
    7.1962   -0.2685    0.0000 C   0  0  0  0  0  0  0  0  0  0  0  0
    3.7321   -0.2685    0.0000 C   0  0  0  0  0  0  0  0  0  0  0  0
    8.0622    0.2315    0.0000 C   0  0  0  0  0  0  0  0  0  0  0  0
    2.8660   -0.7685    0.0000 C   0  0  0  0  0  0  0  0  0  0  0  0
    8.9282   -0.2685    0.0000 C   0  0  0  0  0  0  0  0  0  0  0  0
    2.0000   -0.2685    0.0000 C   0  0  0  0  0  0  0  0  0  0  0  0
    6.7976   -0.7434    0.0000 H   0  0  0  0  0  0  0  0  0  0  0  0
    7.5947   -0.7434    0.0000 H   0  0  0  0  0  0  0  0  0  0  0  0
    4.1306    0.2065    0.0000 H   0  0  0  0  0  0  0  0  0  0  0  0
    3.3335    0.2065    0.0000 H   0  0  0  0  0  0  0  0  0  0  0  0
    8.4607    0.7065    0.0000 H   0  0  0  0  0  0  0  0  0  0  0  0
    7.6637    0.7065    0.0000 H   0  0  0  0  0  0  0  0  0  0  0  0
    2.4675   -1.2434    0.0000 H   0  0  0  0  0  0  0  0  0  0  0  0
    3.2646   -1.2434    0.0000 H   0  0  0  0  0  0  0  0  0  0  0  0
    8.6182   -0.8054    0.0000 H   0  0  0  0  0  0  0  0  0  0  0  0
    9.4651   -0.5785    0.0000 H   0  0  0  0  0  0  0  0  0  0  0  0
    9.2382    0.2685    0.0000 H   0  0  0  0  0  0  0  0  0  0  0  0
    2.3100    0.2685    0.0000 H   0  0  0  0  0  0  0  0  0  0  0  0
    1.4631    0.0415    0.0000 H   0  0  0  0  0  0  0  0  0  0  0  0
    1.6900   -0.8054    0.0000 H   0  0  0  0  0  0  0  0  0  0  0  0
    5.2741    1.1345    0.0000 H   0  0  0  0  0  0  0  0  0  0  0  0
  1  2  1  0  0  0  0
  1  3  1  0  0  0  0
  1  4  1  0  0  0  0
  1  5  2  0  0  0  0
  2  6  1  0  0  0  0
  3  7  1  0  0  0  0
  4 26  1  0  0  0  0
  6  8  1  0  0  0  0
  6 12  1  0  0  0  0
  6 13  1  0  0  0  0
  7  9  1  0  0  0  0
  7 14  1  0  0  0  0
  7 15  1  0  0  0  0
  8 10  1  0  0  0  0
  8 16  1  0  0  0  0
  8 17  1  0  0  0  0
  9 11  1  0  0  0  0
  9 18  1  0  0  0  0
  9 19  1  0  0  0  0
 10 20  1  0  0  0  0
 10 21  1  0  0  0  0
 10 22  1  0  0  0  0
 11 23  1  0  0  0  0
 11 24  1  0  0  0  0
 11 25  1  0  0  0  0
M  END
> <PUBCHEM_COMPOUND_CID>
74544

> <PUBCHEM_COMPOUND_CANONICALIZED>
1

> <PUBCHEM_CACTVS_COMPLEXITY>
125

> <PUBCHEM_CACTVS_HBOND_ACCEPTOR>
4

> <PUBCHEM_CACTVS_HBOND_DONOR>
1

> <PUBCHEM_CACTVS_ROTATABLE_BOND>
6

> <PUBCHEM_CACTVS_SUBSKEYS>
AAADccBgOAIAAAAAAAAAAAAAAAAAAAAAAAAAAAAAAAAAAAAAAAAAGgAACCAACACggAICAAAAARAAQAAAAIAAAAAAAAAAAAAAAAAAAAAAAAAAAAAAAAAAAAAAAAAAAAAAAAAAAAAAAAAAAAAAAAAAAAAAAA==

> <PUBCHEM_IUPAC_OPENEYE_NAME>
dipropyl hydrogen phosphate

> <PUBCHEM_IUPAC_CAS_NAME>
dipropyl hydrogen phosphate

> <PUBCHEM_IUPAC_NAME_MARKUP>
dipropyl hydrogen phosphate

> <PUBCHEM_IUPAC_NAME>
dipropyl hydrogen phosphate

> <PUBCHEM_IUPAC_SYSTEMATIC_NAME>
dipropyl hydrogen phosphate

> <PUBCHEM_IUPAC_TRADITIONAL_NAME>
dipropyl hydrogen phosphate

> <PUBCHEM_IUPAC_INCHI>
InChI=1S/C6H15O4P/c1-3-5-9-11(7,8)10-6-4-2/h3-6H2,1-2H3,(H,7,8)

> <PUBCHEM_IUPAC_INCHIKEY>
QVKQJEWZVQFGIY-UHFFFAOYSA-N

> <PUBCHEM_XLOGP3>
0.4

> <PUBCHEM_EXACT_MASS>
182.07079595

> <PUBCHEM_MOLECULAR_FORMULA>
C6H15O4P

> <PUBCHEM_MOLECULAR_WEIGHT>
182.15

> <PUBCHEM_SMILES>
CCCOP(=O)(O)OCCC

> <PUBCHEM_CONNECTIVITY_SMILES>
CCCOP(=O)(O)OCCC

> <PUBCHEM_CACTVS_TPSA>
55.8

> <PUBCHEM_MONOISOTOPIC_WEIGHT>
182.07079595

> <PUBCHEM_TOTAL_CHARGE>
0

> <PUBCHEM_HEAVY_ATOM_COUNT>
11

> <PUBCHEM_ATOM_DEF_STEREO_COUNT>
0

> <PUBCHEM_ATOM_UDEF_STEREO_COUNT>
0

> <PUBCHEM_BOND_DEF_STEREO_COUNT>
0

> <PUBCHEM_BOND_UDEF_STEREO_COUNT>
0

> <PUBCHEM_ISOTOPIC_ATOM_COUNT>
0

> <PUBCHEM_COMPONENT_COUNT>
1

> <PUBCHEM_CACTVS_TAUTO_COUNT>
-1

> <PUBCHEM_COORDINATE_TYPE>
1
5
255

$$$$
