74861
  -OEChem-08032615122D

 15 15  0     0  0  0  0  0  0999 V2000
    3.4030    0.5000    0.0000 C   0  0  0  0  0  0  0  0  0  0  0  0
    2.5369    0.0000    0.0000 C   0  0  0  0  0  0  0  0  0  0  0  0
    4.2690   -0.0000    0.0000 C   0  0  0  0  0  0  0  0  0  0  0  0
    3.4030    1.5000    0.0000 C   0  0  0  0  0  0  0  0  0  0  0  0
    2.5369   -1.0000    0.0000 C   0  0  0  0  0  0  0  0  0  0  0  0
    4.2690   -1.0000    0.0000 C   0  0  0  0  0  0  0  0  0  0  0  0
    3.4030   -1.5000    0.0000 C   0  0  0  0  0  0  0  0  0  0  0  0
    2.0000    0.3100    0.0000 H   1  0  0  0  0  0  0  0  0  0  0  0
    4.8059    0.3100    0.0000 H   1  0  0  0  0  0  0  0  0  0  0  0
    3.4030    2.1200    0.0000 H   1  0  0  0  0  0  0  0  0  0  0  0
    4.0230    1.5000    0.0000 H   1  0  0  0  0  0  0  0  0  0  0  0
    2.7830    1.5000    0.0000 H   1  0  0  0  0  0  0  0  0  0  0  0
    2.0000   -1.3100    0.0000 H   1  0  0  0  0  0  0  0  0  0  0  0
    4.8059   -1.3100    0.0000 H   1  0  0  0  0  0  0  0  0  0  0  0
    3.4030   -2.1200    0.0000 H   1  0  0  0  0  0  0  0  0  0  0  0
  1  2  2  0  0  0  0
  1  3  1  0  0  0  0
  1  4  1  0  0  0  0
  2  5  1  0  0  0  0
  2  8  1  0  0  0  0
  3  6  2  0  0  0  0
  3  9  1  0  0  0  0
  4 10  1  0  0  0  0
  4 11  1  0  0  0  0
  4 12  1  0  0  0  0
  5  7  2  0  0  0  0
  5 13  1  0  0  0  0
  6  7  1  0  0  0  0
  6 14  1  0  0  0  0
  7 15  1  0  0  0  0
M  ISO  8   8   2   9   2  10   2  11   2  12   2  13   2  14   2  15   2
M  END
> <PUBCHEM_COMPOUND_CID>
74861

> <PUBCHEM_COMPOUND_CANONICALIZED>
1

> <PUBCHEM_CACTVS_COMPLEXITY>
42

> <PUBCHEM_CACTVS_HBOND_ACCEPTOR>
0

> <PUBCHEM_CACTVS_HBOND_DONOR>
0

> <PUBCHEM_CACTVS_ROTATABLE_BOND>
0

> <PUBCHEM_CACTVS_SUBSKEYS>
AAADccBgAAAAAAAAAAAAAAAAAAAAAAAAAAAwAAAAAAAAAAABAAAAGAAAAAAADACAGAAyAIAAAACAAiBCAAACAAAgAAAIiAAAAIgIICKAERCAIAAggAAIiAcAgAAOAAAAAAAAAAAAAAAAAAAAAAAAAAAAAA==

> <PUBCHEM_IUPAC_OPENEYE_NAME>
1,2,3,4,5-pentadeuterio-6-(trideuteriomethyl)benzene

> <PUBCHEM_IUPAC_CAS_NAME>
1,2,3,4,5-pentadeuterio-6-(trideuteriomethyl)benzene

> <PUBCHEM_IUPAC_NAME_MARKUP>
1,2,3,4,5-pentadeuterio-6-(trideuteriomethyl)benzene

> <PUBCHEM_IUPAC_NAME>
1,2,3,4,5-pentadeuterio-6-(trideuteriomethyl)benzene

> <PUBCHEM_IUPAC_SYSTEMATIC_NAME>
1,2,3,4,5-pentadeuterio-6-(trideuteriomethyl)benzene

> <PUBCHEM_IUPAC_TRADITIONAL_NAME>
1,2,3,4,5-pentadeuterio-6-(trideuteriomethyl)benzene

> <PUBCHEM_IUPAC_INCHI>
InChI=1S/C7H8/c1-7-5-3-2-4-6-7/h2-6H,1H3/i1D3,2D,3D,4D,5D,6D

> <PUBCHEM_IUPAC_INCHIKEY>
YXFVVABEGXRONW-JGUCLWPXSA-N

> <PUBCHEM_XLOGP3>
2.7

> <PUBCHEM_EXACT_MASS>
100.112814223

> <PUBCHEM_MOLECULAR_FORMULA>
C7H8

> <PUBCHEM_MOLECULAR_WEIGHT>
100.19

> <PUBCHEM_SMILES>
[2H]C1=C(C(=C(C(=C1[2H])[2H])C([2H])([2H])[2H])[2H])[2H]

> <PUBCHEM_CONNECTIVITY_SMILES>
CC1=CC=CC=C1

> <PUBCHEM_CACTVS_TPSA>
0

> <PUBCHEM_MONOISOTOPIC_WEIGHT>
100.112814223

> <PUBCHEM_TOTAL_CHARGE>
0

> <PUBCHEM_HEAVY_ATOM_COUNT>
7

> <PUBCHEM_ATOM_DEF_STEREO_COUNT>
0

> <PUBCHEM_ATOM_UDEF_STEREO_COUNT>
0

> <PUBCHEM_BOND_DEF_STEREO_COUNT>
0

> <PUBCHEM_BOND_UDEF_STEREO_COUNT>
0

> <PUBCHEM_ISOTOPIC_ATOM_COUNT>
8

> <PUBCHEM_COMPONENT_COUNT>
1

> <PUBCHEM_CACTVS_TAUTO_COUNT>
-1

> <PUBCHEM_COORDINATE_TYPE>
1
5
255

> <PUBCHEM_BONDANNOTATIONS>
1  2  8
1  3  8
2  5  8
3  6  8
5  7  8
6  7  8

$$$$
