74883
  -OEChem-05122609152D

 21 20  0     0  0  0  0  0  0999 V2000
    6.5010   -1.1160    0.0000 F   0  0  0  0  0  0  0  0  0  0  0  0
    5.5010    0.6160    0.0000 F   0  0  0  0  0  0  0  0  0  0  0  0
    4.6350    0.1160    0.0000 F   0  0  0  0  0  0  0  0  0  0  0  0
    5.6350   -1.6160    0.0000 F   0  0  0  0  0  0  0  0  0  0  0  0
    6.3671    1.1160    0.0000 F   0  0  0  0  0  0  0  0  0  0  0  0
    7.3671   -0.6160    0.0000 F   0  0  0  0  0  0  0  0  0  0  0  0
    8.5991    1.2500    0.0000 F   0  0  0  0  0  0  0  0  0  0  0  0
    8.2331   -0.1160    0.0000 F   0  0  0  0  0  0  0  0  0  0  0  0
    7.2331    1.6160    0.0000 F   0  0  0  0  0  0  0  0  0  0  0  0
    2.5369   -1.2500    0.0000 O   0  0  0  0  0  0  0  0  0  0  0  0
    6.0010   -0.2500    0.0000 C   0  0  0  0  0  0  0  0  0  0  0  0
    5.1350   -0.7500    0.0000 C   0  0  0  0  0  0  0  0  0  0  0  0
    6.8671    0.2500    0.0000 C   0  0  0  0  0  0  0  0  0  0  0  0
    4.2690   -1.2500    0.0000 C   0  0  0  0  0  0  0  0  0  0  0  0
    7.7331    0.7500    0.0000 C   0  0  0  0  0  0  0  0  0  0  0  0
    3.4030   -0.7500    0.0000 C   0  0  0  0  0  0  0  0  0  0  0  0
    3.8705   -1.7250    0.0000 H   0  0  0  0  0  0  0  0  0  0  0  0
    4.6675   -1.7250    0.0000 H   0  0  0  0  0  0  0  0  0  0  0  0
    3.8015   -0.2751    0.0000 H   0  0  0  0  0  0  0  0  0  0  0  0
    3.0044   -0.2751    0.0000 H   0  0  0  0  0  0  0  0  0  0  0  0
    2.0000   -0.9400    0.0000 H   0  0  0  0  0  0  0  0  0  0  0  0
  1 11  1  0  0  0  0
  2 11  1  0  0  0  0
  3 12  1  0  0  0  0
  4 12  1  0  0  0  0
  5 13  1  0  0  0  0
  6 13  1  0  0  0  0
  7 15  1  0  0  0  0
  8 15  1  0  0  0  0
  9 15  1  0  0  0  0
 10 16  1  0  0  0  0
 10 21  1  0  0  0  0
 11 12  1  0  0  0  0
 11 13  1  0  0  0  0
 12 14  1  0  0  0  0
 13 15  1  0  0  0  0
 14 16  1  0  0  0  0
 14 17  1  0  0  0  0
 14 18  1  0  0  0  0
 16 19  1  0  0  0  0
 16 20  1  0  0  0  0
M  END
> <PUBCHEM_COMPOUND_CID>
74883

> <PUBCHEM_COMPOUND_CANONICALIZED>
1

> <PUBCHEM_CACTVS_COMPLEXITY>
243

> <PUBCHEM_CACTVS_HBOND_ACCEPTOR>
10

> <PUBCHEM_CACTVS_HBOND_DONOR>
1

> <PUBCHEM_CACTVS_ROTATABLE_BOND>
4

> <PUBCHEM_CACTVS_SUBSKEYS>
AAADcYBgIcAAAAAAAAAAAAAAAAAAAAAAAAAAAAAAAAAAAAAAAAAAGwAACAAACACggBIAAAAAAgAAAAAAAAAAAAAAAAAAAAAAAAAAEAIAAAAAQAAEAAAAAAGAQAAAAAAAAAAAAAAAAAAAAAAAAAAAAAAAAA==

> <PUBCHEM_IUPAC_OPENEYE_NAME>
3,3,4,4,5,5,6,6,6-nonafluorohexan-1-ol

> <PUBCHEM_IUPAC_CAS_NAME>
3,3,4,4,5,5,6,6,6-nonafluoro-1-hexanol

> <PUBCHEM_IUPAC_NAME_MARKUP>
3,3,4,4,5,5,6,6,6-nonafluorohexan-1-ol

> <PUBCHEM_IUPAC_NAME>
3,3,4,4,5,5,6,6,6-nonafluorohexan-1-ol

> <PUBCHEM_IUPAC_SYSTEMATIC_NAME>
3,3,4,4,5,5,6,6,6-nonakis(fluoranyl)hexan-1-ol

> <PUBCHEM_IUPAC_TRADITIONAL_NAME>
3,3,4,4,5,5,6,6,6-nonafluorohexan-1-ol

> <PUBCHEM_IUPAC_INCHI>
InChI=1S/C6H5F9O/c7-3(8,1-2-16)4(9,10)5(11,12)6(13,14)15/h16H,1-2H2

> <PUBCHEM_IUPAC_INCHIKEY>
JCMNMOBHVPONLD-UHFFFAOYSA-N

> <PUBCHEM_XLOGP3_AA>
3

> <PUBCHEM_EXACT_MASS>
264.01966824

> <PUBCHEM_MOLECULAR_FORMULA>
C6H5F9O

> <PUBCHEM_MOLECULAR_WEIGHT>
264.09

> <PUBCHEM_SMILES>
C(CO)C(C(C(C(F)(F)F)(F)F)(F)F)(F)F

> <PUBCHEM_CONNECTIVITY_SMILES>
C(CO)C(C(C(C(F)(F)F)(F)F)(F)F)(F)F

> <PUBCHEM_CACTVS_TPSA>
20.2

> <PUBCHEM_MONOISOTOPIC_WEIGHT>
264.01966824

> <PUBCHEM_TOTAL_CHARGE>
0

> <PUBCHEM_HEAVY_ATOM_COUNT>
16

> <PUBCHEM_ATOM_DEF_STEREO_COUNT>
0

> <PUBCHEM_ATOM_UDEF_STEREO_COUNT>
0

> <PUBCHEM_BOND_DEF_STEREO_COUNT>
0

> <PUBCHEM_BOND_UDEF_STEREO_COUNT>
0

> <PUBCHEM_ISOTOPIC_ATOM_COUNT>
0

> <PUBCHEM_COMPONENT_COUNT>
1

> <PUBCHEM_CACTVS_TAUTO_COUNT>
-1

> <PUBCHEM_COORDINATE_TYPE>
1
5
255

$$$$
