75444
  -OEChem-05122608082D

 77 79  0     0  0  0  0  0  0999 V2000
    5.4818    0.0000    0.0000 Cl  0  5  0  0  0  0  0  0  0  0  0  0
    9.1972    4.5503    0.0000 N   0  0  0  0  0  0  0  0  0  0  0  0
    2.2690    4.5503    0.0000 N   0  0  0  0  0  0  0  0  0  0  0  0
    5.7331   10.5503    0.0000 N   0  3  0  0  0  0  0  0  0  0  0  0
    5.7331    6.5503    0.0000 C   0  0  0  0  0  0  0  0  0  0  0  0
    5.7331    7.5503    0.0000 C   0  0  0  0  0  0  0  0  0  0  0  0
    6.5991    8.0503    0.0000 C   0  0  0  0  0  0  0  0  0  0  0  0
    6.5991    6.0503    0.0000 C   0  0  0  0  0  0  0  0  0  0  0  0
    4.8671    6.0503    0.0000 C   0  0  0  0  0  0  0  0  0  0  0  0
    6.5991    9.0503    0.0000 C   0  0  0  0  0  0  0  0  0  0  0  0
    5.7331    9.5503    0.0000 C   0  0  0  0  0  0  0  0  0  0  0  0
    4.8671    8.0503    0.0000 C   0  0  0  0  0  0  0  0  0  0  0  0
    8.3312    5.0503    0.0000 C   0  0  0  0  0  0  0  0  0  0  0  0
    3.1350    5.0503    0.0000 C   0  0  0  0  0  0  0  0  0  0  0  0
    4.8671    9.0503    0.0000 C   0  0  0  0  0  0  0  0  0  0  0  0
    7.4651    6.5503    0.0000 C   0  0  0  0  0  0  0  0  0  0  0  0
    4.8671    5.0503    0.0000 C   0  0  0  0  0  0  0  0  0  0  0  0
    6.5991    5.0503    0.0000 C   0  0  0  0  0  0  0  0  0  0  0  0
    4.0010    6.5503    0.0000 C   0  0  0  0  0  0  0  0  0  0  0  0
    7.4931    7.5156    0.0000 C   0  0  0  0  0  0  0  0  0  0  0  0
    8.3312    6.0503    0.0000 C   0  0  0  0  0  0  0  0  0  0  0  0
    4.0010    4.5503    0.0000 C   0  0  0  0  0  0  0  0  0  0  0  0
    7.4651    4.5503    0.0000 C   0  0  0  0  0  0  0  0  0  0  0  0
    3.1350    6.0503    0.0000 C   0  0  0  0  0  0  0  0  0  0  0  0
    7.4931    9.5849    0.0000 C   0  0  0  0  0  0  0  0  0  0  0  0
    9.1972    3.5503    0.0000 C   0  0  0  0  0  0  0  0  0  0  0  0
   10.0632    5.0503    0.0000 C   0  0  0  0  0  0  0  0  0  0  0  0
    2.2690    3.5503    0.0000 C   0  0  0  0  0  0  0  0  0  0  0  0
    1.4030    5.0503    0.0000 C   0  0  0  0  0  0  0  0  0  0  0  0
    8.3991    8.0295    0.0000 C   0  0  0  0  0  0  0  0  0  0  0  0
    8.3991    9.0711    0.0000 C   0  0  0  0  0  0  0  0  0  0  0  0
    4.8671   11.0503    0.0000 C   0  0  0  0  0  0  0  0  0  0  0  0
   10.0632    3.0503    0.0000 C   0  0  0  0  0  0  0  0  0  0  0  0
   10.9292    4.5503    0.0000 C   0  0  0  0  0  0  0  0  0  0  0  0
    1.4030    3.0503    0.0000 C   0  0  0  0  0  0  0  0  0  0  0  0
    0.5369    4.5503    0.0000 C   0  0  0  0  0  0  0  0  0  0  0  0
    4.8671   12.0503    0.0000 C   0  0  0  0  0  0  0  0  0  0  0  0
    4.3301    7.7403    0.0000 H   0  0  0  0  0  0  0  0  0  0  0  0
    4.3301    9.3603    0.0000 H   0  0  0  0  0  0  0  0  0  0  0  0
    7.4651    7.1703    0.0000 H   0  0  0  0  0  0  0  0  0  0  0  0
    5.4040    4.7403    0.0000 H   0  0  0  0  0  0  0  0  0  0  0  0
    6.0622    4.7403    0.0000 H   0  0  0  0  0  0  0  0  0  0  0  0
    4.0010    7.1703    0.0000 H   0  0  0  0  0  0  0  0  0  0  0  0
    7.4859    6.8957    0.0000 H   0  0  0  0  0  0  0  0  0  0  0  0
    8.8681    6.3603    0.0000 H   0  0  0  0  0  0  0  0  0  0  0  0
    4.0010    3.9303    0.0000 H   0  0  0  0  0  0  0  0  0  0  0  0
    7.4651    3.9303    0.0000 H   0  0  0  0  0  0  0  0  0  0  0  0
    2.5981    6.3603    0.0000 H   0  0  0  0  0  0  0  0  0  0  0  0
    7.4859   10.2049    0.0000 H   0  0  0  0  0  0  0  0  0  0  0  0
    8.5866    3.6579    0.0000 H   0  0  0  0  0  0  0  0  0  0  0  0
    8.9851    2.9677    0.0000 H   0  0  0  0  0  0  0  0  0  0  0  0
   10.4617    5.5252    0.0000 H   0  0  0  0  0  0  0  0  0  0  0  0
    9.6647    5.5252    0.0000 H   0  0  0  0  0  0  0  0  0  0  0  0
    2.4810    2.9677    0.0000 H   0  0  0  0  0  0  0  0  0  0  0  0
    2.8796    3.6579    0.0000 H   0  0  0  0  0  0  0  0  0  0  0  0
    1.8015    5.5252    0.0000 H   0  0  0  0  0  0  0  0  0  0  0  0
    1.0044    5.5252    0.0000 H   0  0  0  0  0  0  0  0  0  0  0  0
    6.2700   10.8603    0.0000 H   0  0  0  0  0  0  0  0  0  0  0  0
    8.9349    7.7174    0.0000 H   0  0  0  0  0  0  0  0  0  0  0  0
    8.9349    9.3832    0.0000 H   0  0  0  0  0  0  0  0  0  0  0  0
    4.2565   11.1579    0.0000 H   0  0  0  0  0  0  0  0  0  0  0  0
    4.6550   10.4677    0.0000 H   0  0  0  0  0  0  0  0  0  0  0  0
    9.7532    2.5133    0.0000 H   0  0  0  0  0  0  0  0  0  0  0  0
   10.6002    2.7403    0.0000 H   0  0  0  0  0  0  0  0  0  0  0  0
   10.3732    3.5872    0.0000 H   0  0  0  0  0  0  0  0  0  0  0  0
   10.6192    4.0133    0.0000 H   0  0  0  0  0  0  0  0  0  0  0  0
   11.4662    4.2403    0.0000 H   0  0  0  0  0  0  0  0  0  0  0  0
   11.2392    5.0872    0.0000 H   0  0  0  0  0  0  0  0  0  0  0  0
    1.0930    3.5872    0.0000 H   0  0  0  0  0  0  0  0  0  0  0  0
    0.8660    2.7403    0.0000 H   0  0  0  0  0  0  0  0  0  0  0  0
    1.7130    2.5133    0.0000 H   0  0  0  0  0  0  0  0  0  0  0  0
    0.2269    5.0872    0.0000 H   0  0  0  0  0  0  0  0  0  0  0  0
    0.0000    4.2403    0.0000 H   0  0  0  0  0  0  0  0  0  0  0  0
    0.8469    4.0133    0.0000 H   0  0  0  0  0  0  0  0  0  0  0  0
    5.4871   12.0503    0.0000 H   0  0  0  0  0  0  0  0  0  0  0  0
    4.8671   12.6703    0.0000 H   0  0  0  0  0  0  0  0  0  0  0  0
    4.2471   12.0503    0.0000 H   0  0  0  0  0  0  0  0  0  0  0  0
  2 13  1  0  0  0  0
  2 26  1  0  0  0  0
  2 27  1  0  0  0  0
  3 14  1  0  0  0  0
  3 28  1  0  0  0  0
  3 29  1  0  0  0  0
  4 11  2  0  0  0  0
  4 32  1  0  0  0  0
  4 58  1  0  0  0  0
  5  6  2  0  0  0  0
  5  8  1  0  0  0  0
  5  9  1  0  0  0  0
  6  7  1  0  0  0  0
  6 12  1  0  0  0  0
  7 10  1  0  0  0  0
  7 20  2  0  0  0  0
  8 16  2  0  0  0  0
  8 18  1  0  0  0  0
  9 17  2  0  0  0  0
  9 19  1  0  0  0  0
 10 11  1  0  0  0  0
 10 25  2  0  0  0  0
 11 15  1  0  0  0  0
 12 15  2  0  0  0  0
 12 38  1  0  0  0  0
 13 21  2  0  0  0  0
 13 23  1  0  0  0  0
 14 22  2  0  0  0  0
 14 24  1  0  0  0  0
 15 39  1  0  0  0  0
 16 21  1  0  0  0  0
 16 40  1  0  0  0  0
 17 22  1  0  0  0  0
 17 41  1  0  0  0  0
 18 23  2  0  0  0  0
 18 42  1  0  0  0  0
 19 24  2  0  0  0  0
 19 43  1  0  0  0  0
 20 30  1  0  0  0  0
 20 44  1  0  0  0  0
 21 45  1  0  0  0  0
 22 46  1  0  0  0  0
 23 47  1  0  0  0  0
 24 48  1  0  0  0  0
 25 31  1  0  0  0  0
 25 49  1  0  0  0  0
 26 33  1  0  0  0  0
 26 50  1  0  0  0  0
 26 51  1  0  0  0  0
 27 34  1  0  0  0  0
 27 52  1  0  0  0  0
 27 53  1  0  0  0  0
 28 35  1  0  0  0  0
 28 54  1  0  0  0  0
 28 55  1  0  0  0  0
 29 36  1  0  0  0  0
 29 56  1  0  0  0  0
 29 57  1  0  0  0  0
 30 31  2  0  0  0  0
 30 59  1  0  0  0  0
 31 60  1  0  0  0  0
 32 37  1  0  0  0  0
 32 61  1  0  0  0  0
 32 62  1  0  0  0  0
 33 63  1  0  0  0  0
 33 64  1  0  0  0  0
 33 65  1  0  0  0  0
 34 66  1  0  0  0  0
 34 67  1  0  0  0  0
 34 68  1  0  0  0  0
 35 69  1  0  0  0  0
 35 70  1  0  0  0  0
 35 71  1  0  0  0  0
 36 72  1  0  0  0  0
 36 73  1  0  0  0  0
 36 74  1  0  0  0  0
 37 75  1  0  0  0  0
 37 76  1  0  0  0  0
 37 77  1  0  0  0  0
M  CHG  2   1  -1   4   1
M  END
> <PUBCHEM_COMPOUND_CID>
75444

> <PUBCHEM_COMPOUND_CANONICALIZED>
1

> <PUBCHEM_CACTVS_COMPLEXITY>
722

> <PUBCHEM_CACTVS_HBOND_ACCEPTOR>
3

> <PUBCHEM_CACTVS_HBOND_DONOR>
1

> <PUBCHEM_CACTVS_ROTATABLE_BOND>
9

> <PUBCHEM_CACTVS_SUBSKEYS>
AAADcfB/AAAEAAAAAAAAAAAAAAAAAAAAAAAwYMEAAAAAAACBUAAAHAAQAAAADAjBGAQywIPAAACgAyRiRACCAAAhAgAIiIA4ZJgIIKLAkZGEIAhgkADIyAcQgMAOiAAAAAAQAAAQAAAAACAAAAAAAAAAAA==

> <PUBCHEM_IUPAC_OPENEYE_NAME>
[4-[bis[4-(diethylamino)phenyl]methylene]-1-naphthylidene]-ethyl-ammonium chloride

> <PUBCHEM_IUPAC_CAS_NAME>
[4-[bis[4-(diethylamino)phenyl]methylidene]-1-naphthalenylidene]-ethylammonium chloride

> <PUBCHEM_IUPAC_NAME_MARKUP>
[4-[bis[4-(diethylamino)phenyl]methylidene]naphthalen-1-ylidene]-ethylazanium chloride

> <PUBCHEM_IUPAC_NAME>
[4-[bis[4-(diethylamino)phenyl]methylidene]naphthalen-1-ylidene]-ethylazanium chloride

> <PUBCHEM_IUPAC_SYSTEMATIC_NAME>
[4-[bis[4-(diethylamino)phenyl]methylidene]naphthalen-1-ylidene]-ethyl-azanium chloride

> <PUBCHEM_IUPAC_TRADITIONAL_NAME>
[4-[bis[4-(diethylamino)phenyl]methylene]-1-naphthylidene]-ethyl-ammonium chloride

> <PUBCHEM_IUPAC_INCHI>
InChI=1S/C33H39N3.ClH/c1-6-34-32-24-23-31(29-13-11-12-14-30(29)32)33(25-15-19-27(20-16-25)35(7-2)8-3)26-17-21-28(22-18-26)36(9-4)10-5;/h11-24H,6-10H2,1-5H3;1H

> <PUBCHEM_IUPAC_INCHIKEY>
ROVRRJSRRSGUOL-UHFFFAOYSA-N

> <PUBCHEM_EXACT_MASS>
513.2910760

> <PUBCHEM_MOLECULAR_FORMULA>
C33H40ClN3

> <PUBCHEM_MOLECULAR_WEIGHT>
514.1

> <PUBCHEM_SMILES>
CC[NH+]=C1C=CC(=C(C2=CC=C(C=C2)N(CC)CC)C3=CC=C(C=C3)N(CC)CC)C4=CC=CC=C14.[Cl-]

> <PUBCHEM_CONNECTIVITY_SMILES>
CC[NH+]=C1C=CC(=C(C2=CC=C(C=C2)N(CC)CC)C3=CC=C(C=C3)N(CC)CC)C4=CC=CC=C14.[Cl-]

> <PUBCHEM_CACTVS_TPSA>
20.5

> <PUBCHEM_MONOISOTOPIC_WEIGHT>
513.2910760

> <PUBCHEM_TOTAL_CHARGE>
0

> <PUBCHEM_HEAVY_ATOM_COUNT>
37

> <PUBCHEM_ATOM_DEF_STEREO_COUNT>
0

> <PUBCHEM_ATOM_UDEF_STEREO_COUNT>
0

> <PUBCHEM_BOND_DEF_STEREO_COUNT>
0

> <PUBCHEM_BOND_UDEF_STEREO_COUNT>
0

> <PUBCHEM_ISOTOPIC_ATOM_COUNT>
0

> <PUBCHEM_COMPONENT_COUNT>
2

> <PUBCHEM_CACTVS_TAUTO_COUNT>
-1

> <PUBCHEM_COORDINATE_TYPE>
1
5
255

> <PUBCHEM_BONDANNOTATIONS>
10  25  8
13  21  8
13  23  8
14  22  8
14  24  8
16  21  8
17  22  8
18  23  8
19  24  8
20  30  8
25  31  8
30  31  8
7  10  8
7  20  8
8  16  8
8  18  8
9  17  8
9  19  8

$$$$
