75665
  -OEChem-05122608102D

 53 52  0     0  0  0  0  0  0999 V2000
    7.1962   -2.1651    0.0000 P   0  0  0  0  0  0  0  0  0  0  0  0
    8.0622   -1.6651    0.0000 O   0  0  0  0  0  0  0  0  0  0  0  0
    6.3301   -2.6651    0.0000 O   0  0  0  0  0  0  0  0  0  0  0  0
    6.6962   -1.2990    0.0000 O   0  0  0  0  0  0  0  0  0  0  0  0
    7.6962   -3.0311    0.0000 O   0  0  0  0  0  0  0  0  0  0  0  0
    9.7942   -1.6651    0.0000 C   0  0  0  0  0  0  0  0  0  0  0  0
    4.5981   -2.6651    0.0000 C   0  0  0  0  0  0  0  0  0  0  0  0
    6.6962    0.4330    0.0000 C   0  0  0  0  0  0  0  0  0  0  0  0
   10.6603   -2.1651    0.0000 C   0  0  0  0  0  0  0  0  0  0  0  0
    3.7320   -2.1651    0.0000 C   0  0  0  0  0  0  0  0  0  0  0  0
    7.1962    1.2990    0.0000 C   0  0  0  0  0  0  0  0  0  0  0  0
    8.9282   -2.1651    0.0000 C   0  0  0  0  0  0  0  0  0  0  0  0
    5.4641   -2.1651    0.0000 C   0  0  0  0  0  0  0  0  0  0  0  0
    7.1962   -0.4330    0.0000 C   0  0  0  0  0  0  0  0  0  0  0  0
   11.5263   -1.6651    0.0000 C   0  0  0  0  0  0  0  0  0  0  0  0
    2.8660   -2.6651    0.0000 C   0  0  0  0  0  0  0  0  0  0  0  0
    6.6962    2.1651    0.0000 C   0  0  0  0  0  0  0  0  0  0  0  0
   12.3923   -2.1651    0.0000 C   0  0  0  0  0  0  0  0  0  0  0  0
    2.0000   -2.1651    0.0000 C   0  0  0  0  0  0  0  0  0  0  0  0
    7.1962    3.0311    0.0000 C   0  0  0  0  0  0  0  0  0  0  0  0
   10.1928   -1.1901    0.0000 H   0  0  0  0  0  0  0  0  0  0  0  0
    9.3957   -1.1901    0.0000 H   0  0  0  0  0  0  0  0  0  0  0  0
    4.1996   -3.1400    0.0000 H   0  0  0  0  0  0  0  0  0  0  0  0
    4.9966   -3.1400    0.0000 H   0  0  0  0  0  0  0  0  0  0  0  0
    6.2212    0.8315    0.0000 H   0  0  0  0  0  0  0  0  0  0  0  0
    6.2212    0.0345    0.0000 H   0  0  0  0  0  0  0  0  0  0  0  0
   10.2617   -2.6400    0.0000 H   0  0  0  0  0  0  0  0  0  0  0  0
   11.0588   -2.6400    0.0000 H   0  0  0  0  0  0  0  0  0  0  0  0
    4.1306   -1.6901    0.0000 H   0  0  0  0  0  0  0  0  0  0  0  0
    3.3335   -1.6901    0.0000 H   0  0  0  0  0  0  0  0  0  0  0  0
    7.6711    0.9005    0.0000 H   0  0  0  0  0  0  0  0  0  0  0  0
    7.6711    1.6976    0.0000 H   0  0  0  0  0  0  0  0  0  0  0  0
    8.5297   -2.6400    0.0000 H   0  0  0  0  0  0  0  0  0  0  0  0
    9.3267   -2.6400    0.0000 H   0  0  0  0  0  0  0  0  0  0  0  0
    5.8626   -1.6901    0.0000 H   0  0  0  0  0  0  0  0  0  0  0  0
    5.0656   -1.6901    0.0000 H   0  0  0  0  0  0  0  0  0  0  0  0
    7.6711   -0.8315    0.0000 H   0  0  0  0  0  0  0  0  0  0  0  0
    7.6711   -0.0345    0.0000 H   0  0  0  0  0  0  0  0  0  0  0  0
   11.9248   -1.1901    0.0000 H   0  0  0  0  0  0  0  0  0  0  0  0
   11.1278   -1.1901    0.0000 H   0  0  0  0  0  0  0  0  0  0  0  0
    2.4675   -3.1400    0.0000 H   0  0  0  0  0  0  0  0  0  0  0  0
    3.2646   -3.1400    0.0000 H   0  0  0  0  0  0  0  0  0  0  0  0
    6.2212    2.5636    0.0000 H   0  0  0  0  0  0  0  0  0  0  0  0
    6.2212    1.7665    0.0000 H   0  0  0  0  0  0  0  0  0  0  0  0
   12.0823   -2.7020    0.0000 H   0  0  0  0  0  0  0  0  0  0  0  0
   12.9292   -2.4751    0.0000 H   0  0  0  0  0  0  0  0  0  0  0  0
   12.7023   -1.6281    0.0000 H   0  0  0  0  0  0  0  0  0  0  0  0
    2.3100   -1.6281    0.0000 H   0  0  0  0  0  0  0  0  0  0  0  0
    1.4631   -1.8551    0.0000 H   0  0  0  0  0  0  0  0  0  0  0  0
    1.6900   -2.7020    0.0000 H   0  0  0  0  0  0  0  0  0  0  0  0
    7.7331    2.7211    0.0000 H   0  0  0  0  0  0  0  0  0  0  0  0
    7.5062    3.5680    0.0000 H   0  0  0  0  0  0  0  0  0  0  0  0
    6.6592    3.3411    0.0000 H   0  0  0  0  0  0  0  0  0  0  0  0
  1  2  1  0  0  0  0
  1  3  1  0  0  0  0
  1  4  1  0  0  0  0
  1  5  2  0  0  0  0
  2 12  1  0  0  0  0
  3 13  1  0  0  0  0
  4 14  1  0  0  0  0
  6  9  1  0  0  0  0
  6 12  1  0  0  0  0
  6 21  1  0  0  0  0
  6 22  1  0  0  0  0
  7 10  1  0  0  0  0
  7 13  1  0  0  0  0
  7 23  1  0  0  0  0
  7 24  1  0  0  0  0
  8 11  1  0  0  0  0
  8 14  1  0  0  0  0
  8 25  1  0  0  0  0
  8 26  1  0  0  0  0
  9 15  1  0  0  0  0
  9 27  1  0  0  0  0
  9 28  1  0  0  0  0
 10 16  1  0  0  0  0
 10 29  1  0  0  0  0
 10 30  1  0  0  0  0
 11 17  1  0  0  0  0
 11 31  1  0  0  0  0
 11 32  1  0  0  0  0
 12 33  1  0  0  0  0
 12 34  1  0  0  0  0
 13 35  1  0  0  0  0
 13 36  1  0  0  0  0
 14 37  1  0  0  0  0
 14 38  1  0  0  0  0
 15 18  1  0  0  0  0
 15 39  1  0  0  0  0
 15 40  1  0  0  0  0
 16 19  1  0  0  0  0
 16 41  1  0  0  0  0
 16 42  1  0  0  0  0
 17 20  1  0  0  0  0
 17 43  1  0  0  0  0
 17 44  1  0  0  0  0
 18 45  1  0  0  0  0
 18 46  1  0  0  0  0
 18 47  1  0  0  0  0
 19 48  1  0  0  0  0
 19 49  1  0  0  0  0
 19 50  1  0  0  0  0
 20 51  1  0  0  0  0
 20 52  1  0  0  0  0
 20 53  1  0  0  0  0
M  END
> <PUBCHEM_COMPOUND_CID>
75665

> <PUBCHEM_COMPOUND_CANONICALIZED>
1

> <PUBCHEM_CACTVS_COMPLEXITY>
208

> <PUBCHEM_CACTVS_HBOND_ACCEPTOR>
4

> <PUBCHEM_CACTVS_HBOND_DONOR>
0

> <PUBCHEM_CACTVS_ROTATABLE_BOND>
15

> <PUBCHEM_CACTVS_SUBSKEYS>
AAADcfBwOAIAAAAAAAAAAAAAAAAAAAAAAAAAAAAAAAAAAAAAAAAAGgAAACAACACggAICAAAAARAAQAAAAIAAAAAAAAAAAAAAAAAAAAIAAAAAAAAEAAAAAACAAAAAAAAAAAAAAAAAAAAAAAAAAAAAAAAAAA==

> <PUBCHEM_IUPAC_OPENEYE_NAME>
tripentyl phosphate

> <PUBCHEM_IUPAC_CAS_NAME>
phosphoric acid tripentyl ester

> <PUBCHEM_IUPAC_NAME_MARKUP>
tripentyl phosphate

> <PUBCHEM_IUPAC_NAME>
tripentyl phosphate

> <PUBCHEM_IUPAC_SYSTEMATIC_NAME>
tripentyl phosphate

> <PUBCHEM_IUPAC_TRADITIONAL_NAME>
phosphoric acid triamyl ester

> <PUBCHEM_IUPAC_INCHI>
InChI=1S/C15H33O4P/c1-4-7-10-13-17-20(16,18-14-11-8-5-2)19-15-12-9-6-3/h4-15H2,1-3H3

> <PUBCHEM_IUPAC_INCHIKEY>
QJAVUVZBMMXBRO-UHFFFAOYSA-N

> <PUBCHEM_XLOGP3>
4.6

> <PUBCHEM_EXACT_MASS>
308.21164653

> <PUBCHEM_MOLECULAR_FORMULA>
C15H33O4P

> <PUBCHEM_MOLECULAR_WEIGHT>
308.39

> <PUBCHEM_SMILES>
CCCCCOP(=O)(OCCCCC)OCCCCC

> <PUBCHEM_CONNECTIVITY_SMILES>
CCCCCOP(=O)(OCCCCC)OCCCCC

> <PUBCHEM_CACTVS_TPSA>
44.8

> <PUBCHEM_MONOISOTOPIC_WEIGHT>
308.21164653

> <PUBCHEM_TOTAL_CHARGE>
0

> <PUBCHEM_HEAVY_ATOM_COUNT>
20

> <PUBCHEM_ATOM_DEF_STEREO_COUNT>
0

> <PUBCHEM_ATOM_UDEF_STEREO_COUNT>
0

> <PUBCHEM_BOND_DEF_STEREO_COUNT>
0

> <PUBCHEM_BOND_UDEF_STEREO_COUNT>
0

> <PUBCHEM_ISOTOPIC_ATOM_COUNT>
0

> <PUBCHEM_COMPONENT_COUNT>
1

> <PUBCHEM_CACTVS_TAUTO_COUNT>
-1

> <PUBCHEM_COORDINATE_TYPE>
1
5
255

$$$$
