75666
  -OEChem-05122608102D

 62 61  0     0  0  0  0  0  0999 V2000
    8.0622   -2.5981    0.0000 P   0  0  0  0  0  0  0  0  0  0  0  0
    8.9282   -2.0981    0.0000 O   0  0  0  0  0  0  0  0  0  0  0  0
    7.1962   -3.0981    0.0000 O   0  0  0  0  0  0  0  0  0  0  0  0
    7.5622   -1.7321    0.0000 O   0  0  0  0  0  0  0  0  0  0  0  0
    8.5622   -3.4641    0.0000 O   0  0  0  0  0  0  0  0  0  0  0  0
   11.5263   -2.5981    0.0000 C   0  0  0  0  0  0  0  0  0  0  0  0
    4.5981   -2.5981    0.0000 C   0  0  0  0  0  0  0  0  0  0  0  0
    8.0622    0.8660    0.0000 C   0  0  0  0  0  0  0  0  0  0  0  0
   10.6603   -2.0981    0.0000 C   0  0  0  0  0  0  0  0  0  0  0  0
    5.4641   -3.0981    0.0000 C   0  0  0  0  0  0  0  0  0  0  0  0
    7.5622   -0.0000    0.0000 C   0  0  0  0  0  0  0  0  0  0  0  0
   12.3923   -2.0981    0.0000 C   0  0  0  0  0  0  0  0  0  0  0  0
    3.7321   -3.0981    0.0000 C   0  0  0  0  0  0  0  0  0  0  0  0
    7.5622    1.7321    0.0000 C   0  0  0  0  0  0  0  0  0  0  0  0
    9.7942   -2.5981    0.0000 C   0  0  0  0  0  0  0  0  0  0  0  0
    6.3301   -2.5981    0.0000 C   0  0  0  0  0  0  0  0  0  0  0  0
    8.0622   -0.8660    0.0000 C   0  0  0  0  0  0  0  0  0  0  0  0
   13.2583   -2.5981    0.0000 C   0  0  0  0  0  0  0  0  0  0  0  0
    2.8660   -2.5981    0.0000 C   0  0  0  0  0  0  0  0  0  0  0  0
    8.0622    2.5981    0.0000 C   0  0  0  0  0  0  0  0  0  0  0  0
   14.1244   -2.0981    0.0000 C   0  0  0  0  0  0  0  0  0  0  0  0
    2.0000   -3.0981    0.0000 C   0  0  0  0  0  0  0  0  0  0  0  0
    7.5622    3.4641    0.0000 C   0  0  0  0  0  0  0  0  0  0  0  0
   11.1278   -3.0730    0.0000 H   0  0  0  0  0  0  0  0  0  0  0  0
   11.9248   -3.0730    0.0000 H   0  0  0  0  0  0  0  0  0  0  0  0
    4.9966   -2.1231    0.0000 H   0  0  0  0  0  0  0  0  0  0  0  0
    4.1996   -2.1231    0.0000 H   0  0  0  0  0  0  0  0  0  0  0  0
    8.5371    0.4675    0.0000 H   0  0  0  0  0  0  0  0  0  0  0  0
    8.5371    1.2646    0.0000 H   0  0  0  0  0  0  0  0  0  0  0  0
   11.0588   -1.6231    0.0000 H   0  0  0  0  0  0  0  0  0  0  0  0
   10.2617   -1.6231    0.0000 H   0  0  0  0  0  0  0  0  0  0  0  0
    5.0656   -3.5730    0.0000 H   0  0  0  0  0  0  0  0  0  0  0  0
    5.8626   -3.5730    0.0000 H   0  0  0  0  0  0  0  0  0  0  0  0
    7.0872    0.3985    0.0000 H   0  0  0  0  0  0  0  0  0  0  0  0
    7.0872   -0.3985    0.0000 H   0  0  0  0  0  0  0  0  0  0  0  0
   12.7908   -1.6231    0.0000 H   0  0  0  0  0  0  0  0  0  0  0  0
   11.9938   -1.6231    0.0000 H   0  0  0  0  0  0  0  0  0  0  0  0
    3.3335   -3.5730    0.0000 H   0  0  0  0  0  0  0  0  0  0  0  0
    4.1306   -3.5730    0.0000 H   0  0  0  0  0  0  0  0  0  0  0  0
    7.0872    2.1306    0.0000 H   0  0  0  0  0  0  0  0  0  0  0  0
    7.0872    1.3335    0.0000 H   0  0  0  0  0  0  0  0  0  0  0  0
    9.3957   -3.0730    0.0000 H   0  0  0  0  0  0  0  0  0  0  0  0
   10.1928   -3.0730    0.0000 H   0  0  0  0  0  0  0  0  0  0  0  0
    6.7287   -2.1231    0.0000 H   0  0  0  0  0  0  0  0  0  0  0  0
    5.9316   -2.1231    0.0000 H   0  0  0  0  0  0  0  0  0  0  0  0
    8.5371   -1.2646    0.0000 H   0  0  0  0  0  0  0  0  0  0  0  0
    8.5371   -0.4675    0.0000 H   0  0  0  0  0  0  0  0  0  0  0  0
   12.8598   -3.0730    0.0000 H   0  0  0  0  0  0  0  0  0  0  0  0
   13.6569   -3.0730    0.0000 H   0  0  0  0  0  0  0  0  0  0  0  0
    3.2646   -2.1231    0.0000 H   0  0  0  0  0  0  0  0  0  0  0  0
    2.4675   -2.1231    0.0000 H   0  0  0  0  0  0  0  0  0  0  0  0
    8.5371    2.1996    0.0000 H   0  0  0  0  0  0  0  0  0  0  0  0
    8.5371    2.9966    0.0000 H   0  0  0  0  0  0  0  0  0  0  0  0
   14.4344   -2.6350    0.0000 H   0  0  0  0  0  0  0  0  0  0  0  0
   14.6613   -1.7881    0.0000 H   0  0  0  0  0  0  0  0  0  0  0  0
   13.8144   -1.5611    0.0000 H   0  0  0  0  0  0  0  0  0  0  0  0
    1.6900   -2.5611    0.0000 H   0  0  0  0  0  0  0  0  0  0  0  0
    1.4631   -3.4081    0.0000 H   0  0  0  0  0  0  0  0  0  0  0  0
    2.3100   -3.6350    0.0000 H   0  0  0  0  0  0  0  0  0  0  0  0
    8.0991    3.7741    0.0000 H   0  0  0  0  0  0  0  0  0  0  0  0
    7.2522    4.0010    0.0000 H   0  0  0  0  0  0  0  0  0  0  0  0
    7.0252    3.1541    0.0000 H   0  0  0  0  0  0  0  0  0  0  0  0
  1  2  1  0  0  0  0
  1  3  1  0  0  0  0
  1  4  1  0  0  0  0
  1  5  2  0  0  0  0
  2 15  1  0  0  0  0
  3 16  1  0  0  0  0
  4 17  1  0  0  0  0
  6  9  1  0  0  0  0
  6 12  1  0  0  0  0
  6 24  1  0  0  0  0
  6 25  1  0  0  0  0
  7 10  1  0  0  0  0
  7 13  1  0  0  0  0
  7 26  1  0  0  0  0
  7 27  1  0  0  0  0
  8 11  1  0  0  0  0
  8 14  1  0  0  0  0
  8 28  1  0  0  0  0
  8 29  1  0  0  0  0
  9 15  1  0  0  0  0
  9 30  1  0  0  0  0
  9 31  1  0  0  0  0
 10 16  1  0  0  0  0
 10 32  1  0  0  0  0
 10 33  1  0  0  0  0
 11 17  1  0  0  0  0
 11 34  1  0  0  0  0
 11 35  1  0  0  0  0
 12 18  1  0  0  0  0
 12 36  1  0  0  0  0
 12 37  1  0  0  0  0
 13 19  1  0  0  0  0
 13 38  1  0  0  0  0
 13 39  1  0  0  0  0
 14 20  1  0  0  0  0
 14 40  1  0  0  0  0
 14 41  1  0  0  0  0
 15 42  1  0  0  0  0
 15 43  1  0  0  0  0
 16 44  1  0  0  0  0
 16 45  1  0  0  0  0
 17 46  1  0  0  0  0
 17 47  1  0  0  0  0
 18 21  1  0  0  0  0
 18 48  1  0  0  0  0
 18 49  1  0  0  0  0
 19 22  1  0  0  0  0
 19 50  1  0  0  0  0
 19 51  1  0  0  0  0
 20 23  1  0  0  0  0
 20 52  1  0  0  0  0
 20 53  1  0  0  0  0
 21 54  1  0  0  0  0
 21 55  1  0  0  0  0
 21 56  1  0  0  0  0
 22 57  1  0  0  0  0
 22 58  1  0  0  0  0
 22 59  1  0  0  0  0
 23 60  1  0  0  0  0
 23 61  1  0  0  0  0
 23 62  1  0  0  0  0
M  END
> <PUBCHEM_COMPOUND_CID>
75666

> <PUBCHEM_COMPOUND_CANONICALIZED>
1

> <PUBCHEM_CACTVS_COMPLEXITY>
241

> <PUBCHEM_CACTVS_HBOND_ACCEPTOR>
4

> <PUBCHEM_CACTVS_HBOND_DONOR>
0

> <PUBCHEM_CACTVS_ROTATABLE_BOND>
18

> <PUBCHEM_CACTVS_SUBSKEYS>
AAADcfB4OAIAAAAAAAAAAAAAAAAAAAAAAAAAAAAAAAAAAAAAAAAAGgAAACAACACggAICAAAAARAAQAAAAIAAAAAAAAAAAAAAAAAAAAIAAAAAAAAEAAAAAAGAQAAAAAAAAAAAAAAAAAAAAAAAAAAAAAAAAA==

> <PUBCHEM_IUPAC_OPENEYE_NAME>
trihexyl phosphate

> <PUBCHEM_IUPAC_CAS_NAME>
phosphoric acid trihexyl ester

> <PUBCHEM_IUPAC_NAME_MARKUP>
trihexyl phosphate

> <PUBCHEM_IUPAC_NAME>
trihexyl phosphate

> <PUBCHEM_IUPAC_SYSTEMATIC_NAME>
trihexyl phosphate

> <PUBCHEM_IUPAC_TRADITIONAL_NAME>
phosphoric acid trihexyl ester

> <PUBCHEM_IUPAC_INCHI>
InChI=1S/C18H39O4P/c1-4-7-10-13-16-20-23(19,21-17-14-11-8-5-2)22-18-15-12-9-6-3/h4-18H2,1-3H3

> <PUBCHEM_IUPAC_INCHIKEY>
SFENPMLASUEABX-UHFFFAOYSA-N

> <PUBCHEM_XLOGP3_AA>
6.5

> <PUBCHEM_EXACT_MASS>
350.25859672

> <PUBCHEM_MOLECULAR_FORMULA>
C18H39O4P

> <PUBCHEM_MOLECULAR_WEIGHT>
350.5

> <PUBCHEM_SMILES>
CCCCCCOP(=O)(OCCCCCC)OCCCCCC

> <PUBCHEM_CONNECTIVITY_SMILES>
CCCCCCOP(=O)(OCCCCCC)OCCCCCC

> <PUBCHEM_CACTVS_TPSA>
44.8

> <PUBCHEM_MONOISOTOPIC_WEIGHT>
350.25859672

> <PUBCHEM_TOTAL_CHARGE>
0

> <PUBCHEM_HEAVY_ATOM_COUNT>
23

> <PUBCHEM_ATOM_DEF_STEREO_COUNT>
0

> <PUBCHEM_ATOM_UDEF_STEREO_COUNT>
0

> <PUBCHEM_BOND_DEF_STEREO_COUNT>
0

> <PUBCHEM_BOND_UDEF_STEREO_COUNT>
0

> <PUBCHEM_ISOTOPIC_ATOM_COUNT>
0

> <PUBCHEM_COMPONENT_COUNT>
1

> <PUBCHEM_CACTVS_TAUTO_COUNT>
-1

> <PUBCHEM_COORDINATE_TYPE>
1
5
255

$$$$
