75691
  -OEChem-05122608162D

 35 34  0     0  0  0  0  0  0999 V2000
    4.5981    0.0000    0.0000 Si  0  0  0  0  0  0  0  0  0  0  0  0
    5.4641    0.5000    0.0000 O   0  0  0  0  0  0  0  0  0  0  0  0
    3.7321   -0.5000    0.0000 O   0  0  0  0  0  0  0  0  0  0  0  0
    4.0981    0.8660    0.0000 O   0  0  0  0  0  0  0  0  0  0  0  0
    5.0981   -0.8660    0.0000 C   0  0  0  0  0  0  0  0  0  0  0  0
    4.5981   -1.7321    0.0000 C   0  0  0  0  0  0  0  0  0  0  0  0
    5.0981   -2.5981    0.0000 C   0  0  0  0  0  0  0  0  0  0  0  0
    6.3301    0.0000    0.0000 C   0  0  0  0  0  0  0  0  0  0  0  0
    2.8660   -0.0000    0.0000 C   0  0  0  0  0  0  0  0  0  0  0  0
    4.5981    1.7321    0.0000 C   0  0  0  0  0  0  0  0  0  0  0  0
    7.1962    0.5000    0.0000 C   0  0  0  0  0  0  0  0  0  0  0  0
    2.0000   -0.5000    0.0000 C   0  0  0  0  0  0  0  0  0  0  0  0
    4.0981    2.5981    0.0000 C   0  0  0  0  0  0  0  0  0  0  0  0
    5.5730   -1.2646    0.0000 H   0  0  0  0  0  0  0  0  0  0  0  0
    5.5730   -0.4675    0.0000 H   0  0  0  0  0  0  0  0  0  0  0  0
    4.1231   -1.3335    0.0000 H   0  0  0  0  0  0  0  0  0  0  0  0
    4.1231   -2.1306    0.0000 H   0  0  0  0  0  0  0  0  0  0  0  0
    4.5611   -2.9081    0.0000 H   0  0  0  0  0  0  0  0  0  0  0  0
    5.4081   -3.1350    0.0000 H   0  0  0  0  0  0  0  0  0  0  0  0
    5.6350   -2.2881    0.0000 H   0  0  0  0  0  0  0  0  0  0  0  0
    5.9316   -0.4749    0.0000 H   0  0  0  0  0  0  0  0  0  0  0  0
    6.7287   -0.4749    0.0000 H   0  0  0  0  0  0  0  0  0  0  0  0
    3.2646    0.4749    0.0000 H   0  0  0  0  0  0  0  0  0  0  0  0
    2.4675    0.4749    0.0000 H   0  0  0  0  0  0  0  0  0  0  0  0
    5.0730    1.3335    0.0000 H   0  0  0  0  0  0  0  0  0  0  0  0
    5.0730    2.1306    0.0000 H   0  0  0  0  0  0  0  0  0  0  0  0
    7.5062   -0.0369    0.0000 H   0  0  0  0  0  0  0  0  0  0  0  0
    7.7331    0.8100    0.0000 H   0  0  0  0  0  0  0  0  0  0  0  0
    6.8862    1.0369    0.0000 H   0  0  0  0  0  0  0  0  0  0  0  0
    1.6900    0.0369    0.0000 H   0  0  0  0  0  0  0  0  0  0  0  0
    1.4631   -0.8100    0.0000 H   0  0  0  0  0  0  0  0  0  0  0  0
    2.3100   -1.0369    0.0000 H   0  0  0  0  0  0  0  0  0  0  0  0
    4.6350    2.9081    0.0000 H   0  0  0  0  0  0  0  0  0  0  0  0
    3.7881    3.1350    0.0000 H   0  0  0  0  0  0  0  0  0  0  0  0
    3.5611    2.2881    0.0000 H   0  0  0  0  0  0  0  0  0  0  0  0
  1  2  1  0  0  0  0
  1  3  1  0  0  0  0
  1  4  1  0  0  0  0
  1  5  1  0  0  0  0
  2  8  1  0  0  0  0
  3  9  1  0  0  0  0
  4 10  1  0  0  0  0
  5  6  1  0  0  0  0
  5 14  1  0  0  0  0
  5 15  1  0  0  0  0
  6  7  1  0  0  0  0
  6 16  1  0  0  0  0
  6 17  1  0  0  0  0
  7 18  1  0  0  0  0
  7 19  1  0  0  0  0
  7 20  1  0  0  0  0
  8 11  1  0  0  0  0
  8 21  1  0  0  0  0
  8 22  1  0  0  0  0
  9 12  1  0  0  0  0
  9 23  1  0  0  0  0
  9 24  1  0  0  0  0
 10 13  1  0  0  0  0
 10 25  1  0  0  0  0
 10 26  1  0  0  0  0
 11 27  1  0  0  0  0
 11 28  1  0  0  0  0
 11 29  1  0  0  0  0
 12 30  1  0  0  0  0
 12 31  1  0  0  0  0
 12 32  1  0  0  0  0
 13 33  1  0  0  0  0
 13 34  1  0  0  0  0
 13 35  1  0  0  0  0
M  END
> <PUBCHEM_COMPOUND_CID>
75691

> <PUBCHEM_COMPOUND_CANONICALIZED>
1

> <PUBCHEM_CACTVS_COMPLEXITY>
102

> <PUBCHEM_CACTVS_HBOND_ACCEPTOR>
3

> <PUBCHEM_CACTVS_HBOND_DONOR>
0

> <PUBCHEM_CACTVS_ROTATABLE_BOND>
8

> <PUBCHEM_CACTVS_SUBSKEYS>
AAADceBwMAgAAAAAAAAAAAAAAAAAAAAAAAAAAAAAAAAAAAAAAAAAGhAAAEAACACgoAJCAAAAAAAAAAAAAAAAAAAAAAAAAAAAAAAAAAAAAAAAAAAAAAAAAAAAAAAAAAAAAAAAAAAAAAAAAAAAAAAAAAAAAA==

> <PUBCHEM_IUPAC_OPENEYE_NAME>
triethoxy(propyl)silane

> <PUBCHEM_IUPAC_CAS_NAME>
triethoxy(propyl)silane

> <PUBCHEM_IUPAC_NAME_MARKUP>
triethoxy(propyl)silane

> <PUBCHEM_IUPAC_NAME>
triethoxy(propyl)silane

> <PUBCHEM_IUPAC_SYSTEMATIC_NAME>
triethoxy(propyl)silane

> <PUBCHEM_IUPAC_TRADITIONAL_NAME>
triethoxy(propyl)silane

> <PUBCHEM_IUPAC_INCHI>
InChI=1S/C9H22O3Si/c1-5-9-13(10-6-2,11-7-3)12-8-4/h5-9H2,1-4H3

> <PUBCHEM_IUPAC_INCHIKEY>
NBXZNTLFQLUFES-UHFFFAOYSA-N

> <PUBCHEM_EXACT_MASS>
206.13382109

> <PUBCHEM_MOLECULAR_FORMULA>
C9H22O3Si

> <PUBCHEM_MOLECULAR_WEIGHT>
206.35

> <PUBCHEM_SMILES>
CCC[Si](OCC)(OCC)OCC

> <PUBCHEM_CONNECTIVITY_SMILES>
CCC[Si](OCC)(OCC)OCC

> <PUBCHEM_CACTVS_TPSA>
27.7

> <PUBCHEM_MONOISOTOPIC_WEIGHT>
206.13382109

> <PUBCHEM_TOTAL_CHARGE>
0

> <PUBCHEM_HEAVY_ATOM_COUNT>
13

> <PUBCHEM_ATOM_DEF_STEREO_COUNT>
0

> <PUBCHEM_ATOM_UDEF_STEREO_COUNT>
0

> <PUBCHEM_BOND_DEF_STEREO_COUNT>
0

> <PUBCHEM_BOND_UDEF_STEREO_COUNT>
0

> <PUBCHEM_ISOTOPIC_ATOM_COUNT>
0

> <PUBCHEM_COMPONENT_COUNT>
1

> <PUBCHEM_CACTVS_TAUTO_COUNT>
-1

> <PUBCHEM_COORDINATE_TYPE>
1
5
255

$$$$
