75771
  -OEChem-05122608342D

 15 16  0     0  0  0  0  0  0999 V2000
    4.9889    1.3137    0.0000 O   0  0  0  0  0  0  0  0  0  0  0  0
    4.6783    0.3632    0.0000 N   0  0  0  0  0  0  0  0  0  0  0  0
    4.6783   -1.2463    0.0000 N   0  0  0  0  0  0  0  0  0  0  0  0
    5.2619   -0.4416    0.0000 N   0  0  0  0  0  0  0  0  0  0  0  0
    3.7321    0.0584    0.0000 C   0  0  0  0  0  0  0  0  0  0  0  0
    3.7321   -0.9416    0.0000 C   0  0  0  0  0  0  0  0  0  0  0  0
    2.8660    0.5584    0.0000 C   0  0  0  0  0  0  0  0  0  0  0  0
    2.8660   -1.4416    0.0000 C   0  0  0  0  0  0  0  0  0  0  0  0
    2.0000    0.0584    0.0000 C   0  0  0  0  0  0  0  0  0  0  0  0
    2.0000   -0.9416    0.0000 C   0  0  0  0  0  0  0  0  0  0  0  0
    2.8660    1.1785    0.0000 H   0  0  0  0  0  0  0  0  0  0  0  0
    2.8660   -2.0616    0.0000 H   0  0  0  0  0  0  0  0  0  0  0  0
    1.4631    0.3684    0.0000 H   0  0  0  0  0  0  0  0  0  0  0  0
    1.4631   -1.2516    0.0000 H   0  0  0  0  0  0  0  0  0  0  0  0
    5.5956    1.4416    0.0000 H   0  0  0  0  0  0  0  0  0  0  0  0
  1  2  1  0  0  0  0
  1 15  1  0  0  0  0
  2  4  1  0  0  0  0
  2  5  1  0  0  0  0
  3  4  2  0  0  0  0
  3  6  1  0  0  0  0
  5  6  1  0  0  0  0
  5  7  2  0  0  0  0
  6  8  2  0  0  0  0
  7  9  1  0  0  0  0
  7 11  1  0  0  0  0
  8 10  1  0  0  0  0
  8 12  1  0  0  0  0
  9 10  2  0  0  0  0
  9 13  1  0  0  0  0
 10 14  1  0  0  0  0
M  END
> <PUBCHEM_COMPOUND_CID>
75771

> <PUBCHEM_COMPOUND_CANONICALIZED>
1

> <PUBCHEM_CACTVS_COMPLEXITY>
130

> <PUBCHEM_CACTVS_HBOND_ACCEPTOR>
3

> <PUBCHEM_CACTVS_HBOND_DONOR>
1

> <PUBCHEM_CACTVS_ROTATABLE_BOND>
0

> <PUBCHEM_CACTVS_SUBSKEYS>
AAADcYBjIAAAAAAAAAAAAAAAAAAAAWAAAAAwAAAAAAAAAFgB8AAAHAAMCAAACAiBFgAwwLAQAACiASRiQACCBAQgEgA4mCAwdJgIYKKAkZGAIABggAAIyAcQAAAAAAAAAAAAACAAAAAAAAAAQAAAAAAAAA==

> <PUBCHEM_IUPAC_OPENEYE_NAME>
1-hydroxybenzotriazole

> <PUBCHEM_IUPAC_CAS_NAME>
1-hydroxybenzotriazole

> <PUBCHEM_IUPAC_NAME_MARKUP>
1-hydroxybenzotriazole

> <PUBCHEM_IUPAC_NAME>
1-hydroxybenzotriazole

> <PUBCHEM_IUPAC_SYSTEMATIC_NAME>
1-oxidanylbenzotriazole

> <PUBCHEM_IUPAC_TRADITIONAL_NAME>
1-hydroxybenzotriazole

> <PUBCHEM_IUPAC_INCHI>
InChI=1S/C6H5N3O/c10-9-6-4-2-1-3-5(6)7-8-9/h1-4,10H

> <PUBCHEM_IUPAC_INCHIKEY>
ASOKPJOREAFHNY-UHFFFAOYSA-N

> <PUBCHEM_XLOGP3>
1.2

> <PUBCHEM_EXACT_MASS>
135.043261791

> <PUBCHEM_MOLECULAR_FORMULA>
C6H5N3O

> <PUBCHEM_MOLECULAR_WEIGHT>
135.12

> <PUBCHEM_SMILES>
C1=CC=C2C(=C1)N=NN2O

> <PUBCHEM_CONNECTIVITY_SMILES>
C1=CC=C2C(=C1)N=NN2O

> <PUBCHEM_CACTVS_TPSA>
50.9

> <PUBCHEM_MONOISOTOPIC_WEIGHT>
135.043261791

> <PUBCHEM_TOTAL_CHARGE>
0

> <PUBCHEM_HEAVY_ATOM_COUNT>
10

> <PUBCHEM_ATOM_DEF_STEREO_COUNT>
0

> <PUBCHEM_ATOM_UDEF_STEREO_COUNT>
0

> <PUBCHEM_BOND_DEF_STEREO_COUNT>
0

> <PUBCHEM_BOND_UDEF_STEREO_COUNT>
0

> <PUBCHEM_ISOTOPIC_ATOM_COUNT>
0

> <PUBCHEM_COMPONENT_COUNT>
1

> <PUBCHEM_CACTVS_TAUTO_COUNT>
-1

> <PUBCHEM_COORDINATE_TYPE>
1
5
255

> <PUBCHEM_BONDANNOTATIONS>
2  4  8
2  5  8
3  4  8
3  6  8
5  6  8
5  7  8
6  8  8
7  9  8
8  10  8
9  10  8

$$$$
