75819
  -OEChem-05122608112D

 29 28  0     0  0  0  0  0  0999 V2000
    3.7321    0.0000    0.0000 Si  0  0  0  0  0  0  0  0  0  0  0  0
    5.4641    0.0000    0.0000 Si  0  0  0  0  0  0  0  0  0  0  0  0
    4.5981    0.5000    0.0000 O   0  0  0  0  0  0  0  0  0  0  0  0
    3.2321    0.8660    0.0000 C   0  0  0  0  0  0  0  0  0  0  0  0
    4.2321   -0.8660    0.0000 C   0  0  0  0  0  0  0  0  0  0  0  0
    5.9641    0.8660    0.0000 C   0  0  0  0  0  0  0  0  0  0  0  0
    4.9641   -0.8660    0.0000 C   0  0  0  0  0  0  0  0  0  0  0  0
    2.8660   -0.5000    0.0000 C   0  0  0  0  0  0  0  0  0  0  0  0
    6.3301   -0.5000    0.0000 C   0  0  0  0  0  0  0  0  0  0  0  0
    2.0000   -0.0000    0.0000 C   0  0  0  0  0  0  0  0  0  0  0  0
    7.1962   -0.0000    0.0000 C   0  0  0  0  0  0  0  0  0  0  0  0
    3.7690    1.1760    0.0000 H   0  0  0  0  0  0  0  0  0  0  0  0
    2.9221    1.4030    0.0000 H   0  0  0  0  0  0  0  0  0  0  0  0
    2.6951    0.5560    0.0000 H   0  0  0  0  0  0  0  0  0  0  0  0
    3.6951   -1.1760    0.0000 H   0  0  0  0  0  0  0  0  0  0  0  0
    4.5421   -1.4030    0.0000 H   0  0  0  0  0  0  0  0  0  0  0  0
    4.7690   -0.5560    0.0000 H   0  0  0  0  0  0  0  0  0  0  0  0
    6.5010    0.5560    0.0000 H   0  0  0  0  0  0  0  0  0  0  0  0
    6.2741    1.4030    0.0000 H   0  0  0  0  0  0  0  0  0  0  0  0
    5.4272    1.1760    0.0000 H   0  0  0  0  0  0  0  0  0  0  0  0
    4.4272   -0.5560    0.0000 H   0  0  0  0  0  0  0  0  0  0  0  0
    4.6541   -1.4030    0.0000 H   0  0  0  0  0  0  0  0  0  0  0  0
    5.5010   -1.1760    0.0000 H   0  0  0  0  0  0  0  0  0  0  0  0
    2.8660   -1.1200    0.0000 H   0  0  0  0  0  0  0  0  0  0  0  0
    6.3301   -1.1200    0.0000 H   0  0  0  0  0  0  0  0  0  0  0  0
    2.0000    0.6200    0.0000 H   0  0  0  0  0  0  0  0  0  0  0  0
    1.4631   -0.3100    0.0000 H   0  0  0  0  0  0  0  0  0  0  0  0
    7.7331   -0.3100    0.0000 H   0  0  0  0  0  0  0  0  0  0  0  0
    7.1962    0.6200    0.0000 H   0  0  0  0  0  0  0  0  0  0  0  0
  1  3  1  0  0  0  0
  1  4  1  0  0  0  0
  1  5  1  0  0  0  0
  1  8  1  0  0  0  0
  2  3  1  0  0  0  0
  2  6  1  0  0  0  0
  2  7  1  0  0  0  0
  2  9  1  0  0  0  0
  4 12  1  0  0  0  0
  4 13  1  0  0  0  0
  4 14  1  0  0  0  0
  5 15  1  0  0  0  0
  5 16  1  0  0  0  0
  5 17  1  0  0  0  0
  6 18  1  0  0  0  0
  6 19  1  0  0  0  0
  6 20  1  0  0  0  0
  7 21  1  0  0  0  0
  7 22  1  0  0  0  0
  7 23  1  0  0  0  0
  8 10  2  0  0  0  0
  8 24  1  0  0  0  0
  9 11  2  0  0  0  0
  9 25  1  0  0  0  0
 10 26  1  0  0  0  0
 10 27  1  0  0  0  0
 11 28  1  0  0  0  0
 11 29  1  0  0  0  0
M  END
> <PUBCHEM_COMPOUND_CID>
75819

> <PUBCHEM_COMPOUND_CANONICALIZED>
1

> <PUBCHEM_CACTVS_COMPLEXITY>
143

> <PUBCHEM_CACTVS_HBOND_ACCEPTOR>
1

> <PUBCHEM_CACTVS_HBOND_DONOR>
0

> <PUBCHEM_CACTVS_ROTATABLE_BOND>
4

> <PUBCHEM_CACTVS_SUBSKEYS>
AAADceBwIAwAAAAAAAAAAAAAAAAAAAAAAAAAAAAAAAAAAAAAAAAAGBAAAEAAAACAIABCAAAAAAGAAAACAAAAAAAAAAAIAAAAAAAAAAAAAAAAAAAAAAAAAAAAAAAAAAAAAAAAAAAAAAAAAAAAAAAAAAAAAA==

> <PUBCHEM_IUPAC_OPENEYE_NAME>
[dimethyl(vinyl)silyl]oxy-dimethyl-vinyl-silane

> <PUBCHEM_IUPAC_CAS_NAME>
ethenyl-[ethenyl(dimethyl)silyl]oxy-dimethylsilane

> <PUBCHEM_IUPAC_NAME_MARKUP>
ethenyl-[ethenyl(dimethyl)silyl]oxy-dimethylsilane

> <PUBCHEM_IUPAC_NAME>
ethenyl-[ethenyl(dimethyl)silyl]oxy-dimethylsilane

> <PUBCHEM_IUPAC_SYSTEMATIC_NAME>
ethenyl-[ethenyl(dimethyl)silyl]oxy-dimethyl-silane

> <PUBCHEM_IUPAC_TRADITIONAL_NAME>
[dimethyl(vinyl)silyl]oxy-dimethyl-vinyl-silane

> <PUBCHEM_IUPAC_INCHI>
InChI=1S/C8H18OSi2/c1-7-10(3,4)9-11(5,6)8-2/h7-8H,1-2H2,3-6H3

> <PUBCHEM_IUPAC_INCHIKEY>
BITPLIXHRASDQB-UHFFFAOYSA-N

> <PUBCHEM_EXACT_MASS>
186.08961826

> <PUBCHEM_MOLECULAR_FORMULA>
C8H18OSi2

> <PUBCHEM_MOLECULAR_WEIGHT>
186.40

> <PUBCHEM_SMILES>
C[Si](C)(C=C)O[Si](C)(C)C=C

> <PUBCHEM_CONNECTIVITY_SMILES>
C[Si](C)(C=C)O[Si](C)(C)C=C

> <PUBCHEM_CACTVS_TPSA>
9.2

> <PUBCHEM_MONOISOTOPIC_WEIGHT>
186.08961826

> <PUBCHEM_TOTAL_CHARGE>
0

> <PUBCHEM_HEAVY_ATOM_COUNT>
11

> <PUBCHEM_ATOM_DEF_STEREO_COUNT>
0

> <PUBCHEM_ATOM_UDEF_STEREO_COUNT>
0

> <PUBCHEM_BOND_DEF_STEREO_COUNT>
0

> <PUBCHEM_BOND_UDEF_STEREO_COUNT>
0

> <PUBCHEM_ISOTOPIC_ATOM_COUNT>
0

> <PUBCHEM_COMPONENT_COUNT>
1

> <PUBCHEM_CACTVS_TAUTO_COUNT>
-1

> <PUBCHEM_COORDINATE_TYPE>
1
5
255

$$$$
