76366
  -OEChem-05122608202D

113112  0     0  0  0  0  0  0999 V2000
   12.3923    0.0000    0.0000 O   0  0  0  0  0  0  0  0  0  0  0  0
    8.9282   -0.0000    0.0000 O   0  0  0  0  0  0  0  0  0  0  0  0
   10.6603    1.7321    0.0000 O   0  0  0  0  0  0  0  0  0  0  0  0
   10.6603   -1.7321    0.0000 O   0  0  0  0  0  0  0  0  0  0  0  0
   13.2583    1.5000    0.0000 O   0  0  0  0  0  0  0  0  0  0  0  0
    8.0622   -1.5000    0.0000 O   0  0  0  0  0  0  0  0  0  0  0  0
    9.1603    2.5981    0.0000 O   0  0  0  0  0  0  0  0  0  0  0  0
   12.1603   -2.5981    0.0000 O   0  0  0  0  0  0  0  0  0  0  0  0
   10.6603    0.0000    0.0000 C   0  0  0  0  0  0  0  0  0  0  0  0
   11.5263    0.5000    0.0000 C   0  0  0  0  0  0  0  0  0  0  0  0
    9.7942   -0.5000    0.0000 C   0  0  0  0  0  0  0  0  0  0  0  0
   10.1603    0.8660    0.0000 C   0  0  0  0  0  0  0  0  0  0  0  0
   11.1603   -0.8660    0.0000 C   0  0  0  0  0  0  0  0  0  0  0  0
   13.2583    0.5000    0.0000 C   0  0  0  0  0  0  0  0  0  0  0  0
    8.0622   -0.5000    0.0000 C   0  0  0  0  0  0  0  0  0  0  0  0
   10.1603    2.5981    0.0000 C   0  0  0  0  0  0  0  0  0  0  0  0
   11.1603   -2.5981    0.0000 C   0  0  0  0  0  0  0  0  0  0  0  0
   14.1244   -0.0000    0.0000 C   0  0  0  0  0  0  0  0  0  0  0  0
    7.1962   -0.0000    0.0000 C   0  0  0  0  0  0  0  0  0  0  0  0
   10.6603    3.4641    0.0000 C   0  0  0  0  0  0  0  0  0  0  0  0
   10.6603   -3.4641    0.0000 C   0  0  0  0  0  0  0  0  0  0  0  0
   14.9904    0.5000    0.0000 C   0  0  0  0  0  0  0  0  0  0  0  0
    6.3301   -0.5000    0.0000 C   0  0  0  0  0  0  0  0  0  0  0  0
   10.1603    4.3301    0.0000 C   0  0  0  0  0  0  0  0  0  0  0  0
   11.1603   -4.3301    0.0000 C   0  0  0  0  0  0  0  0  0  0  0  0
   15.8564   -0.0000    0.0000 C   0  0  0  0  0  0  0  0  0  0  0  0
    5.4641   -0.0000    0.0000 C   0  0  0  0  0  0  0  0  0  0  0  0
   10.6603    5.1962    0.0000 C   0  0  0  0  0  0  0  0  0  0  0  0
   10.6603   -5.1962    0.0000 C   0  0  0  0  0  0  0  0  0  0  0  0
   16.7224    0.5000    0.0000 C   0  0  0  0  0  0  0  0  0  0  0  0
    4.5981   -0.5000    0.0000 C   0  0  0  0  0  0  0  0  0  0  0  0
   10.1603    6.0622    0.0000 C   0  0  0  0  0  0  0  0  0  0  0  0
   11.1603   -6.0622    0.0000 C   0  0  0  0  0  0  0  0  0  0  0  0
   17.5885   -0.0000    0.0000 C   0  0  0  0  0  0  0  0  0  0  0  0
    3.7321   -0.0000    0.0000 C   0  0  0  0  0  0  0  0  0  0  0  0
   10.6603    6.9282    0.0000 C   0  0  0  0  0  0  0  0  0  0  0  0
   10.6603   -6.9282    0.0000 C   0  0  0  0  0  0  0  0  0  0  0  0
   18.4545    0.5000    0.0000 C   0  0  0  0  0  0  0  0  0  0  0  0
    2.8660   -0.5000    0.0000 C   0  0  0  0  0  0  0  0  0  0  0  0
   10.1603    7.7942    0.0000 C   0  0  0  0  0  0  0  0  0  0  0  0
   11.1603   -7.7942    0.0000 C   0  0  0  0  0  0  0  0  0  0  0  0
   19.3205   -0.0000    0.0000 C   0  0  0  0  0  0  0  0  0  0  0  0
    2.0000   -0.0000    0.0000 C   0  0  0  0  0  0  0  0  0  0  0  0
   10.6603    8.6603    0.0000 C   0  0  0  0  0  0  0  0  0  0  0  0
   10.6603   -8.6603    0.0000 C   0  0  0  0  0  0  0  0  0  0  0  0
   11.9248    0.9749    0.0000 H   0  0  0  0  0  0  0  0  0  0  0  0
   11.1278    0.9749    0.0000 H   0  0  0  0  0  0  0  0  0  0  0  0
    9.3957   -0.9749    0.0000 H   0  0  0  0  0  0  0  0  0  0  0  0
   10.1928   -0.9749    0.0000 H   0  0  0  0  0  0  0  0  0  0  0  0
    9.6853    1.2646    0.0000 H   0  0  0  0  0  0  0  0  0  0  0  0
    9.6853    0.4675    0.0000 H   0  0  0  0  0  0  0  0  0  0  0  0
   11.6352   -1.2646    0.0000 H   0  0  0  0  0  0  0  0  0  0  0  0
   11.6352   -0.4675    0.0000 H   0  0  0  0  0  0  0  0  0  0  0  0
   13.7258   -0.4749    0.0000 H   0  0  0  0  0  0  0  0  0  0  0  0
   14.5229   -0.4749    0.0000 H   0  0  0  0  0  0  0  0  0  0  0  0
    7.5947    0.4749    0.0000 H   0  0  0  0  0  0  0  0  0  0  0  0
    6.7976    0.4749    0.0000 H   0  0  0  0  0  0  0  0  0  0  0  0
   11.1352    3.0656    0.0000 H   0  0  0  0  0  0  0  0  0  0  0  0
   11.1352    3.8626    0.0000 H   0  0  0  0  0  0  0  0  0  0  0  0
   10.1853   -3.0656    0.0000 H   0  0  0  0  0  0  0  0  0  0  0  0
   10.1853   -3.8626    0.0000 H   0  0  0  0  0  0  0  0  0  0  0  0
   15.3889    0.9749    0.0000 H   0  0  0  0  0  0  0  0  0  0  0  0
   14.5919    0.9749    0.0000 H   0  0  0  0  0  0  0  0  0  0  0  0
    5.9316   -0.9749    0.0000 H   0  0  0  0  0  0  0  0  0  0  0  0
    6.7287   -0.9749    0.0000 H   0  0  0  0  0  0  0  0  0  0  0  0
    9.6853    4.7287    0.0000 H   0  0  0  0  0  0  0  0  0  0  0  0
    9.6853    3.9316    0.0000 H   0  0  0  0  0  0  0  0  0  0  0  0
   11.6352   -4.7287    0.0000 H   0  0  0  0  0  0  0  0  0  0  0  0
   11.6352   -3.9316    0.0000 H   0  0  0  0  0  0  0  0  0  0  0  0
   15.4579   -0.4749    0.0000 H   0  0  0  0  0  0  0  0  0  0  0  0
   16.2549   -0.4749    0.0000 H   0  0  0  0  0  0  0  0  0  0  0  0
    5.8626    0.4749    0.0000 H   0  0  0  0  0  0  0  0  0  0  0  0
    5.0656    0.4749    0.0000 H   0  0  0  0  0  0  0  0  0  0  0  0
   11.1352    4.7976    0.0000 H   0  0  0  0  0  0  0  0  0  0  0  0
   11.1352    5.5947    0.0000 H   0  0  0  0  0  0  0  0  0  0  0  0
   10.1853   -4.7976    0.0000 H   0  0  0  0  0  0  0  0  0  0  0  0
   10.1853   -5.5947    0.0000 H   0  0  0  0  0  0  0  0  0  0  0  0
   17.1210    0.9749    0.0000 H   0  0  0  0  0  0  0  0  0  0  0  0
   16.3239    0.9749    0.0000 H   0  0  0  0  0  0  0  0  0  0  0  0
    4.1996   -0.9749    0.0000 H   0  0  0  0  0  0  0  0  0  0  0  0
    4.9966   -0.9749    0.0000 H   0  0  0  0  0  0  0  0  0  0  0  0
    9.6853    6.4607    0.0000 H   0  0  0  0  0  0  0  0  0  0  0  0
    9.6853    5.6637    0.0000 H   0  0  0  0  0  0  0  0  0  0  0  0
   11.6352   -6.4607    0.0000 H   0  0  0  0  0  0  0  0  0  0  0  0
   11.6352   -5.6637    0.0000 H   0  0  0  0  0  0  0  0  0  0  0  0
   17.1899   -0.4749    0.0000 H   0  0  0  0  0  0  0  0  0  0  0  0
   17.9870   -0.4749    0.0000 H   0  0  0  0  0  0  0  0  0  0  0  0
    4.1306    0.4749    0.0000 H   0  0  0  0  0  0  0  0  0  0  0  0
    3.3335    0.4749    0.0000 H   0  0  0  0  0  0  0  0  0  0  0  0
   11.1352    6.5297    0.0000 H   0  0  0  0  0  0  0  0  0  0  0  0
   11.1352    7.3267    0.0000 H   0  0  0  0  0  0  0  0  0  0  0  0
   10.1853   -6.5297    0.0000 H   0  0  0  0  0  0  0  0  0  0  0  0
   10.1853   -7.3267    0.0000 H   0  0  0  0  0  0  0  0  0  0  0  0
   18.8530    0.9749    0.0000 H   0  0  0  0  0  0  0  0  0  0  0  0
   18.0560    0.9749    0.0000 H   0  0  0  0  0  0  0  0  0  0  0  0
    2.4675   -0.9749    0.0000 H   0  0  0  0  0  0  0  0  0  0  0  0
    3.2646   -0.9749    0.0000 H   0  0  0  0  0  0  0  0  0  0  0  0
    9.6853    8.1928    0.0000 H   0  0  0  0  0  0  0  0  0  0  0  0
    9.6853    7.3957    0.0000 H   0  0  0  0  0  0  0  0  0  0  0  0
   11.6352   -8.1928    0.0000 H   0  0  0  0  0  0  0  0  0  0  0  0
   11.6352   -7.3957    0.0000 H   0  0  0  0  0  0  0  0  0  0  0  0
   19.0105   -0.5369    0.0000 H   0  0  0  0  0  0  0  0  0  0  0  0
   19.8574   -0.3100    0.0000 H   0  0  0  0  0  0  0  0  0  0  0  0
   19.6305    0.5369    0.0000 H   0  0  0  0  0  0  0  0  0  0  0  0
    2.3100    0.5369    0.0000 H   0  0  0  0  0  0  0  0  0  0  0  0
    1.4631    0.3100    0.0000 H   0  0  0  0  0  0  0  0  0  0  0  0
    1.6900   -0.5369    0.0000 H   0  0  0  0  0  0  0  0  0  0  0  0
   11.1972    8.3503    0.0000 H   0  0  0  0  0  0  0  0  0  0  0  0
   10.9703    9.1972    0.0000 H   0  0  0  0  0  0  0  0  0  0  0  0
   10.1233    8.9703    0.0000 H   0  0  0  0  0  0  0  0  0  0  0  0
   10.1233   -8.3503    0.0000 H   0  0  0  0  0  0  0  0  0  0  0  0
   10.3503   -9.1972    0.0000 H   0  0  0  0  0  0  0  0  0  0  0  0
   11.1972   -8.9703    0.0000 H   0  0  0  0  0  0  0  0  0  0  0  0
  1 10  1  0  0  0  0
  1 14  1  0  0  0  0
  2 11  1  0  0  0  0
  2 15  1  0  0  0  0
  3 12  1  0  0  0  0
  3 16  1  0  0  0  0
  4 13  1  0  0  0  0
  4 17  1  0  0  0  0
  5 14  2  0  0  0  0
  6 15  2  0  0  0  0
  7 16  2  0  0  0  0
  8 17  2  0  0  0  0
  9 10  1  0  0  0  0
  9 11  1  0  0  0  0
  9 12  1  0  0  0  0
  9 13  1  0  0  0  0
 10 46  1  0  0  0  0
 10 47  1  0  0  0  0
 11 48  1  0  0  0  0
 11 49  1  0  0  0  0
 12 50  1  0  0  0  0
 12 51  1  0  0  0  0
 13 52  1  0  0  0  0
 13 53  1  0  0  0  0
 14 18  1  0  0  0  0
 15 19  1  0  0  0  0
 16 20  1  0  0  0  0
 17 21  1  0  0  0  0
 18 22  1  0  0  0  0
 18 54  1  0  0  0  0
 18 55  1  0  0  0  0
 19 23  1  0  0  0  0
 19 56  1  0  0  0  0
 19 57  1  0  0  0  0
 20 24  1  0  0  0  0
 20 58  1  0  0  0  0
 20 59  1  0  0  0  0
 21 25  1  0  0  0  0
 21 60  1  0  0  0  0
 21 61  1  0  0  0  0
 22 26  1  0  0  0  0
 22 62  1  0  0  0  0
 22 63  1  0  0  0  0
 23 27  1  0  0  0  0
 23 64  1  0  0  0  0
 23 65  1  0  0  0  0
 24 28  1  0  0  0  0
 24 66  1  0  0  0  0
 24 67  1  0  0  0  0
 25 29  1  0  0  0  0
 25 68  1  0  0  0  0
 25 69  1  0  0  0  0
 26 30  1  0  0  0  0
 26 70  1  0  0  0  0
 26 71  1  0  0  0  0
 27 31  1  0  0  0  0
 27 72  1  0  0  0  0
 27 73  1  0  0  0  0
 28 32  1  0  0  0  0
 28 74  1  0  0  0  0
 28 75  1  0  0  0  0
 29 33  1  0  0  0  0
 29 76  1  0  0  0  0
 29 77  1  0  0  0  0
 30 34  1  0  0  0  0
 30 78  1  0  0  0  0
 30 79  1  0  0  0  0
 31 35  1  0  0  0  0
 31 80  1  0  0  0  0
 31 81  1  0  0  0  0
 32 36  1  0  0  0  0
 32 82  1  0  0  0  0
 32 83  1  0  0  0  0
 33 37  1  0  0  0  0
 33 84  1  0  0  0  0
 33 85  1  0  0  0  0
 34 38  1  0  0  0  0
 34 86  1  0  0  0  0
 34 87  1  0  0  0  0
 35 39  1  0  0  0  0
 35 88  1  0  0  0  0
 35 89  1  0  0  0  0
 36 40  1  0  0  0  0
 36 90  1  0  0  0  0
 36 91  1  0  0  0  0
 37 41  1  0  0  0  0
 37 92  1  0  0  0  0
 37 93  1  0  0  0  0
 38 42  1  0  0  0  0
 38 94  1  0  0  0  0
 38 95  1  0  0  0  0
 39 43  1  0  0  0  0
 39 96  1  0  0  0  0
 39 97  1  0  0  0  0
 40 44  1  0  0  0  0
 40 98  1  0  0  0  0
 40 99  1  0  0  0  0
 41 45  1  0  0  0  0
 41100  1  0  0  0  0
 41101  1  0  0  0  0
 42102  1  0  0  0  0
 42103  1  0  0  0  0
 42104  1  0  0  0  0
 43105  1  0  0  0  0
 43106  1  0  0  0  0
 43107  1  0  0  0  0
 44108  1  0  0  0  0
 44109  1  0  0  0  0
 44110  1  0  0  0  0
 45111  1  0  0  0  0
 45112  1  0  0  0  0
 45113  1  0  0  0  0
M  END
> <PUBCHEM_COMPOUND_CID>
76366

> <PUBCHEM_COMPOUND_CANONICALIZED>
1

> <PUBCHEM_CACTVS_COMPLEXITY>
625

> <PUBCHEM_CACTVS_HBOND_ACCEPTOR>
8

> <PUBCHEM_CACTVS_HBOND_DONOR>
0

> <PUBCHEM_CACTVS_ROTATABLE_BOND>
36

> <PUBCHEM_CACTVS_SUBSKEYS>
AAADcfB8PAAAAAAAAAAAAAAAAAAAAAAAAAAAAAAAAAAAAAAAAAAAGgAAAAAADgCggAICCAAABAAIAACQCAAAAAAAAAAAAAEAAAAAABIAAAACAAAFAAAAAAGIyKCAAAAAAAAAAAAAAAAAAAAAAAAAAAAAAA==

> <PUBCHEM_IUPAC_OPENEYE_NAME>
[3-octanoyloxy-2,2-bis(octanoyloxymethyl)propyl] octanoate

> <PUBCHEM_IUPAC_CAS_NAME>
octanoic acid [3-(1-oxooctoxy)-2,2-bis(1-oxooctoxymethyl)propyl] ester

> <PUBCHEM_IUPAC_NAME_MARKUP>
[3-octanoyloxy-2,2-bis(octanoyloxymethyl)propyl] octanoate

> <PUBCHEM_IUPAC_NAME>
[3-octanoyloxy-2,2-bis(octanoyloxymethyl)propyl] octanoate

> <PUBCHEM_IUPAC_SYSTEMATIC_NAME>
[3-octanoyloxy-2,2-bis(octanoyloxymethyl)propyl] octanoate

> <PUBCHEM_IUPAC_TRADITIONAL_NAME>
caprylic acid [3-caprylyloxy-2,2-bis(caprylyloxymethyl)propyl] ester

> <PUBCHEM_IUPAC_INCHI>
InChI=1S/C37H68O8/c1-5-9-13-17-21-25-33(38)42-29-37(30-43-34(39)26-22-18-14-10-6-2,31-44-35(40)27-23-19-15-11-7-3)32-45-36(41)28-24-20-16-12-8-4/h5-32H2,1-4H3

> <PUBCHEM_IUPAC_INCHIKEY>
CFRNDJFRRKMHTL-UHFFFAOYSA-N

> <PUBCHEM_XLOGP3_AA>
11.9

> <PUBCHEM_EXACT_MASS>
640.49141912

> <PUBCHEM_MOLECULAR_FORMULA>
C37H68O8

> <PUBCHEM_MOLECULAR_WEIGHT>
640.9

> <PUBCHEM_SMILES>
CCCCCCCC(=O)OCC(COC(=O)CCCCCCC)(COC(=O)CCCCCCC)COC(=O)CCCCCCC

> <PUBCHEM_CONNECTIVITY_SMILES>
CCCCCCCC(=O)OCC(COC(=O)CCCCCCC)(COC(=O)CCCCCCC)COC(=O)CCCCCCC

> <PUBCHEM_CACTVS_TPSA>
105

> <PUBCHEM_MONOISOTOPIC_WEIGHT>
640.49141912

> <PUBCHEM_TOTAL_CHARGE>
0

> <PUBCHEM_HEAVY_ATOM_COUNT>
45

> <PUBCHEM_ATOM_DEF_STEREO_COUNT>
0

> <PUBCHEM_ATOM_UDEF_STEREO_COUNT>
0

> <PUBCHEM_BOND_DEF_STEREO_COUNT>
0

> <PUBCHEM_BOND_UDEF_STEREO_COUNT>
0

> <PUBCHEM_ISOTOPIC_ATOM_COUNT>
0

> <PUBCHEM_COMPONENT_COUNT>
1

> <PUBCHEM_CACTVS_TAUTO_COUNT>
-1

> <PUBCHEM_COORDINATE_TYPE>
1
5
255

$$$$
