76605
  -OEChem-05122608112D

 37 39  0     0  0  0  0  0  0999 V2000
    6.2619    1.8966    0.0000 O   0  0  0  0  0  0  0  0  0  0  0  0
    5.2619    0.1645    0.0000 N   0  0  0  0  0  0  0  0  0  0  0  0
    4.6783   -0.6402    0.0000 N   0  0  0  0  0  0  0  0  0  0  0  0
    4.6783    0.9693    0.0000 N   0  0  0  0  0  0  0  0  0  0  0  0
    8.2619   -1.5675    0.0000 C   0  0  0  0  0  0  0  0  0  0  0  0
    7.7619   -0.7015    0.0000 C   0  0  0  0  0  0  0  0  0  0  0  0
    8.7619   -2.4335    0.0000 C   0  0  0  0  0  0  0  0  0  0  0  0
    9.1279   -1.0675    0.0000 C   0  0  0  0  0  0  0  0  0  0  0  0
    7.3959   -2.0675    0.0000 C   0  0  0  0  0  0  0  0  0  0  0  0
    6.7619   -0.7015    0.0000 C   0  0  0  0  0  0  0  0  0  0  0  0
    8.2619    0.1645    0.0000 C   0  0  0  0  0  0  0  0  0  0  0  0
    6.2619    0.1645    0.0000 C   0  0  0  0  0  0  0  0  0  0  0  0
    6.7619    1.0306    0.0000 C   0  0  0  0  0  0  0  0  0  0  0  0
    7.7619    1.0306    0.0000 C   0  0  0  0  0  0  0  0  0  0  0  0
    3.7321   -0.3355    0.0000 C   0  0  0  0  0  0  0  0  0  0  0  0
    3.7321    0.6645    0.0000 C   0  0  0  0  0  0  0  0  0  0  0  0
    2.8660   -0.8355    0.0000 C   0  0  0  0  0  0  0  0  0  0  0  0
    2.8660    1.1645    0.0000 C   0  0  0  0  0  0  0  0  0  0  0  0
    2.0000   -0.3355    0.0000 C   0  0  0  0  0  0  0  0  0  0  0  0
    2.0000    0.6645    0.0000 C   0  0  0  0  0  0  0  0  0  0  0  0
    8.2249   -2.7435    0.0000 H   0  0  0  0  0  0  0  0  0  0  0  0
    9.0719   -2.9705    0.0000 H   0  0  0  0  0  0  0  0  0  0  0  0
    9.2988   -2.1235    0.0000 H   0  0  0  0  0  0  0  0  0  0  0  0
    9.4379   -1.6044    0.0000 H   0  0  0  0  0  0  0  0  0  0  0  0
    9.6648   -0.7575    0.0000 H   0  0  0  0  0  0  0  0  0  0  0  0
    8.8179   -0.5306    0.0000 H   0  0  0  0  0  0  0  0  0  0  0  0
    7.0859   -1.5306    0.0000 H   0  0  0  0  0  0  0  0  0  0  0  0
    6.8589   -2.3775    0.0000 H   0  0  0  0  0  0  0  0  0  0  0  0
    7.7059   -2.6044    0.0000 H   0  0  0  0  0  0  0  0  0  0  0  0
    6.4519   -1.2384    0.0000 H   0  0  0  0  0  0  0  0  0  0  0  0
    8.8819    0.1645    0.0000 H   0  0  0  0  0  0  0  0  0  0  0  0
    8.0719    1.5675    0.0000 H   0  0  0  0  0  0  0  0  0  0  0  0
    2.8660   -1.4555    0.0000 H   0  0  0  0  0  0  0  0  0  0  0  0
    2.8660    1.7845    0.0000 H   0  0  0  0  0  0  0  0  0  0  0  0
    6.5719    2.4335    0.0000 H   0  0  0  0  0  0  0  0  0  0  0  0
    1.4631   -0.6455    0.0000 H   0  0  0  0  0  0  0  0  0  0  0  0
    1.4631    0.9745    0.0000 H   0  0  0  0  0  0  0  0  0  0  0  0
  1 13  1  0  0  0  0
  1 35  1  0  0  0  0
  2  3  1  0  0  0  0
  2  4  1  0  0  0  0
  2 12  1  0  0  0  0
  3 15  2  0  0  0  0
  4 16  2  0  0  0  0
  5  6  1  0  0  0  0
  5  7  1  0  0  0  0
  5  8  1  0  0  0  0
  5  9  1  0  0  0  0
  6 10  2  0  0  0  0
  6 11  1  0  0  0  0
  7 21  1  0  0  0  0
  7 22  1  0  0  0  0
  7 23  1  0  0  0  0
  8 24  1  0  0  0  0
  8 25  1  0  0  0  0
  8 26  1  0  0  0  0
  9 27  1  0  0  0  0
  9 28  1  0  0  0  0
  9 29  1  0  0  0  0
 10 12  1  0  0  0  0
 10 30  1  0  0  0  0
 11 14  2  0  0  0  0
 11 31  1  0  0  0  0
 12 13  2  0  0  0  0
 13 14  1  0  0  0  0
 14 32  1  0  0  0  0
 15 16  1  0  0  0  0
 15 17  1  0  0  0  0
 16 18  1  0  0  0  0
 17 19  2  0  0  0  0
 17 33  1  0  0  0  0
 18 20  2  0  0  0  0
 18 34  1  0  0  0  0
 19 20  1  0  0  0  0
 19 36  1  0  0  0  0
 20 37  1  0  0  0  0
M  END
> <PUBCHEM_COMPOUND_CID>
76605

> <PUBCHEM_COMPOUND_CANONICALIZED>
1

> <PUBCHEM_CACTVS_COMPLEXITY>
327

> <PUBCHEM_CACTVS_HBOND_ACCEPTOR>
3

> <PUBCHEM_CACTVS_HBOND_DONOR>
1

> <PUBCHEM_CACTVS_ROTATABLE_BOND>
2

> <PUBCHEM_CACTVS_SUBSKEYS>
AAADceB7IAAAAAAAAAAAAAAAAAAAAWAAAAAwYAAAAAAAAFgB9AAAHgAICAAADgyBngAyxrAAAgCiAyRiQACSBAQgMgAYmCA3fJgKZqKSkZOAcABkyBEI2AeQwNAPoAAAQAAAECBAAACAAAAgQAAAAAAAAA==

> <PUBCHEM_IUPAC_OPENEYE_NAME>
2-(benzotriazol-2-yl)-4-tert-butyl-phenol

> <PUBCHEM_IUPAC_CAS_NAME>
2-(2-benzotriazolyl)-4-tert-butylphenol

> <PUBCHEM_IUPAC_NAME_MARKUP>
2-(benzotriazol-2-yl)-4-<I>tert</I>-butylphenol

> <PUBCHEM_IUPAC_NAME>
2-(benzotriazol-2-yl)-4-tert-butylphenol

> <PUBCHEM_IUPAC_SYSTEMATIC_NAME>
2-(benzotriazol-2-yl)-4-tert-butyl-phenol

> <PUBCHEM_IUPAC_TRADITIONAL_NAME>
2-(benzotriazol-2-yl)-4-tert-butyl-phenol

> <PUBCHEM_IUPAC_INCHI>
InChI=1S/C16H17N3O/c1-16(2,3)11-8-9-15(20)14(10-11)19-17-12-6-4-5-7-13(12)18-19/h4-10,20H,1-3H3

> <PUBCHEM_IUPAC_INCHIKEY>
WXHVQMGINBSVAY-UHFFFAOYSA-N

> <PUBCHEM_XLOGP3>
5.6

> <PUBCHEM_EXACT_MASS>
267.137162174

> <PUBCHEM_MOLECULAR_FORMULA>
C16H17N3O

> <PUBCHEM_MOLECULAR_WEIGHT>
267.33

> <PUBCHEM_SMILES>
CC(C)(C)C1=CC(=C(C=C1)O)N2N=C3C=CC=CC3=N2

> <PUBCHEM_CONNECTIVITY_SMILES>
CC(C)(C)C1=CC(=C(C=C1)O)N2N=C3C=CC=CC3=N2

> <PUBCHEM_CACTVS_TPSA>
50.9

> <PUBCHEM_MONOISOTOPIC_WEIGHT>
267.137162174

> <PUBCHEM_TOTAL_CHARGE>
0

> <PUBCHEM_HEAVY_ATOM_COUNT>
20

> <PUBCHEM_ATOM_DEF_STEREO_COUNT>
0

> <PUBCHEM_ATOM_UDEF_STEREO_COUNT>
0

> <PUBCHEM_BOND_DEF_STEREO_COUNT>
0

> <PUBCHEM_BOND_UDEF_STEREO_COUNT>
0

> <PUBCHEM_ISOTOPIC_ATOM_COUNT>
0

> <PUBCHEM_COMPONENT_COUNT>
1

> <PUBCHEM_CACTVS_TAUTO_COUNT>
-1

> <PUBCHEM_COORDINATE_TYPE>
1
5
255

> <PUBCHEM_BONDANNOTATIONS>
10  12  8
11  14  8
12  13  8
13  14  8
15  16  8
15  17  8
16  18  8
17  19  8
18  20  8
19  20  8
2  3  8
2  4  8
3  15  8
4  16  8
6  10  8
6  11  8

$$$$
