76767
  -OEChem-05122608552D

 20 20  0     0  0  0  0  0  0999 V2000
    5.4641   -0.0000    0.0000 Br  0  0  0  0  0  0  0  0  0  0  0  0
    2.0000    0.0000    0.0000 Br  0  0  0  0  0  0  0  0  0  0  0  0
    3.7321   -3.0000    0.0000 Br  0  0  0  0  0  0  0  0  0  0  0  0
    3.7321    1.0000    0.0000 O   0  0  0  0  0  0  0  0  0  0  0  0
    3.7321    0.0000    0.0000 C   0  0  0  0  0  0  0  0  0  0  0  0
    4.5981   -0.5000    0.0000 C   0  0  0  0  0  0  0  0  0  0  0  0
    2.8660   -0.5000    0.0000 C   0  0  0  0  0  0  0  0  0  0  0  0
    4.5981   -1.5000    0.0000 C   0  0  0  0  0  0  0  0  0  0  0  0
    2.8660   -1.5000    0.0000 C   0  0  0  0  0  0  0  0  0  0  0  0
    3.7321   -2.0000    0.0000 C   0  0  0  0  0  0  0  0  0  0  0  0
    4.5981    1.5000    0.0000 C   0  0  0  0  0  0  0  0  0  0  0  0
    4.5981    2.5000    0.0000 C   0  0  0  0  0  0  0  0  0  0  0  0
    5.4641    3.0000    0.0000 C   0  0  0  0  0  0  0  0  0  0  0  0
    5.1350   -1.8100    0.0000 H   0  0  0  0  0  0  0  0  0  0  0  0
    2.3291   -1.8100    0.0000 H   0  0  0  0  0  0  0  0  0  0  0  0
    4.8101    0.9174    0.0000 H   0  0  0  0  0  0  0  0  0  0  0  0
    5.2087    1.6077    0.0000 H   0  0  0  0  0  0  0  0  0  0  0  0
    4.0611    2.8100    0.0000 H   0  0  0  0  0  0  0  0  0  0  0  0
    6.0010    2.6900    0.0000 H   0  0  0  0  0  0  0  0  0  0  0  0
    5.4641    3.6200    0.0000 H   0  0  0  0  0  0  0  0  0  0  0  0
  1  6  1  0  0  0  0
  2  7  1  0  0  0  0
  3 10  1  0  0  0  0
  4  5  1  0  0  0  0
  4 11  1  0  0  0  0
  5  6  2  0  0  0  0
  5  7  1  0  0  0  0
  6  8  1  0  0  0  0
  7  9  2  0  0  0  0
  8 10  2  0  0  0  0
  8 14  1  0  0  0  0
  9 10  1  0  0  0  0
  9 15  1  0  0  0  0
 11 12  1  0  0  0  0
 11 16  1  0  0  0  0
 11 17  1  0  0  0  0
 12 13  2  0  0  0  0
 12 18  1  0  0  0  0
 13 19  1  0  0  0  0
 13 20  1  0  0  0  0
M  END
> <PUBCHEM_COMPOUND_CID>
76767

> <PUBCHEM_COMPOUND_CANONICALIZED>
1

> <PUBCHEM_CACTVS_COMPLEXITY>
162

> <PUBCHEM_CACTVS_HBOND_ACCEPTOR>
1

> <PUBCHEM_CACTVS_HBOND_DONOR>
0

> <PUBCHEM_CACTVS_ROTATABLE_BOND>
3

> <PUBCHEM_CACTVS_SUBSKEYS>
AAADcYBwIAAAGAAAAAAAAAAAAAAAAAAAAAAwAAAAAAAAAAABAAAAGgBAAAABqASgkAIwBoAABACAACBCAAACCAAgIAQIiAAECKgMJiKEMRqCOCCkwBEIqheAQAAAABAAAAAgBAAAIAAAAEAIAAAAAAAAAA==

> <PUBCHEM_IUPAC_OPENEYE_NAME>
2-allyloxy-1,3,5-tribromo-benzene

> <PUBCHEM_IUPAC_CAS_NAME>
1,3,5-tribromo-2-prop-2-enoxybenzene

> <PUBCHEM_IUPAC_NAME_MARKUP>
1,3,5-tribromo-2-prop-2-enoxybenzene

> <PUBCHEM_IUPAC_NAME>
1,3,5-tribromo-2-prop-2-enoxybenzene

> <PUBCHEM_IUPAC_SYSTEMATIC_NAME>
1,3,5-tris(bromanyl)-2-prop-2-enoxy-benzene

> <PUBCHEM_IUPAC_TRADITIONAL_NAME>
2-allyloxy-1,3,5-tribromo-benzene

> <PUBCHEM_IUPAC_INCHI>
InChI=1S/C9H7Br3O/c1-2-3-13-9-7(11)4-6(10)5-8(9)12/h2,4-5H,1,3H2

> <PUBCHEM_IUPAC_INCHIKEY>
RZLLIOPGUFOWOD-UHFFFAOYSA-N

> <PUBCHEM_XLOGP3>
4.7

> <PUBCHEM_EXACT_MASS>
369.80265

> <PUBCHEM_MOLECULAR_FORMULA>
C9H7Br3O

> <PUBCHEM_MOLECULAR_WEIGHT>
370.86

> <PUBCHEM_SMILES>
C=CCOC1=C(C=C(C=C1Br)Br)Br

> <PUBCHEM_CONNECTIVITY_SMILES>
C=CCOC1=C(C=C(C=C1Br)Br)Br

> <PUBCHEM_CACTVS_TPSA>
9.2

> <PUBCHEM_MONOISOTOPIC_WEIGHT>
367.80470

> <PUBCHEM_TOTAL_CHARGE>
0

> <PUBCHEM_HEAVY_ATOM_COUNT>
13

> <PUBCHEM_ATOM_DEF_STEREO_COUNT>
0

> <PUBCHEM_ATOM_UDEF_STEREO_COUNT>
0

> <PUBCHEM_BOND_DEF_STEREO_COUNT>
0

> <PUBCHEM_BOND_UDEF_STEREO_COUNT>
0

> <PUBCHEM_ISOTOPIC_ATOM_COUNT>
0

> <PUBCHEM_COMPONENT_COUNT>
1

> <PUBCHEM_CACTVS_TAUTO_COUNT>
-1

> <PUBCHEM_COORDINATE_TYPE>
1
5
255

> <PUBCHEM_BONDANNOTATIONS>
5  6  8
5  7  8
6  8  8
7  9  8
8  10  8
9  10  8

$$$$
