76955
  -OEChem-05122609302D

 18 19  0     0  0  0  0  0  0999 V2000
    7.6648    0.1970    0.0000 O   0  0  0  0  0  0  0  0  0  0  0  0
    2.5369    1.1970    0.0000 O   0  0  0  0  0  0  0  0  0  0  0  0
    6.0812   -0.6077    0.0000 N   0  0  0  0  0  0  0  0  0  0  0  0
    5.1350    0.6970    0.0000 C   0  0  0  0  0  0  0  0  0  0  0  0
    6.0812    1.0018    0.0000 C   0  0  0  0  0  0  0  0  0  0  0  0
    5.1350   -0.3030    0.0000 C   0  0  0  0  0  0  0  0  0  0  0  0
    6.6648    0.1970    0.0000 C   0  0  0  0  0  0  0  0  0  0  0  0
    4.2690    1.1970    0.0000 C   0  0  0  0  0  0  0  0  0  0  0  0
    4.2690   -0.8030    0.0000 C   0  0  0  0  0  0  0  0  0  0  0  0
    3.4030    0.6970    0.0000 C   0  0  0  0  0  0  0  0  0  0  0  0
    3.4030   -0.3030    0.0000 C   0  0  0  0  0  0  0  0  0  0  0  0
    6.6186    1.3110    0.0000 H   0  0  0  0  0  0  0  0  0  0  0  0
    5.8302    1.5687    0.0000 H   0  0  0  0  0  0  0  0  0  0  0  0
    6.2738   -1.1970    0.0000 H   0  0  0  0  0  0  0  0  0  0  0  0
    4.2690    1.8170    0.0000 H   0  0  0  0  0  0  0  0  0  0  0  0
    4.2690   -1.4230    0.0000 H   0  0  0  0  0  0  0  0  0  0  0  0
    2.8660   -0.6130    0.0000 H   0  0  0  0  0  0  0  0  0  0  0  0
    2.0000    0.8870    0.0000 H   0  0  0  0  0  0  0  0  0  0  0  0
  1  7  2  0  0  0  0
  2 10  1  0  0  0  0
  2 18  1  0  0  0  0
  3  6  1  0  0  0  0
  3  7  1  0  0  0  0
  3 14  1  0  0  0  0
  4  5  1  0  0  0  0
  4  6  2  0  0  0  0
  4  8  1  0  0  0  0
  5  7  1  0  0  0  0
  5 12  1  0  0  0  0
  5 13  1  0  0  0  0
  6  9  1  0  0  0  0
  8 10  2  0  0  0  0
  8 15  1  0  0  0  0
  9 11  2  0  0  0  0
  9 16  1  0  0  0  0
 10 11  1  0  0  0  0
 11 17  1  0  0  0  0
M  END
> <PUBCHEM_COMPOUND_CID>
76955

> <PUBCHEM_COMPOUND_CANONICALIZED>
1

> <PUBCHEM_CACTVS_COMPLEXITY>
181

> <PUBCHEM_CACTVS_HBOND_ACCEPTOR>
2

> <PUBCHEM_CACTVS_HBOND_DONOR>
2

> <PUBCHEM_CACTVS_ROTATABLE_BOND>
0

> <PUBCHEM_CACTVS_SUBSKEYS>
AAADcYByMAAAAAAAAAAAAAAAAAAAAWAAAAAwAAAAAAAAAFgBAAAAHgAQCAAADAyBmAAwxoLAAgCIAiVSUACCAAAhIgAIiAEGbIgIJjLClZOEcAhk1BHI2Ae83LLOAEABAAACAAAAgAIAAAQAAAAAAAAAAA==

> <PUBCHEM_IUPAC_OPENEYE_NAME>
5-hydroxyindolin-2-one

> <PUBCHEM_IUPAC_CAS_NAME>
5-hydroxy-1,3-dihydroindol-2-one

> <PUBCHEM_IUPAC_NAME_MARKUP>
5-hydroxy-1,3-dihydroindol-2-one

> <PUBCHEM_IUPAC_NAME>
5-hydroxy-1,3-dihydroindol-2-one

> <PUBCHEM_IUPAC_SYSTEMATIC_NAME>
5-oxidanyl-1,3-dihydroindol-2-one

> <PUBCHEM_IUPAC_TRADITIONAL_NAME>
5-hydroxyoxindole

> <PUBCHEM_IUPAC_INCHI>
InChI=1S/C8H7NO2/c10-6-1-2-7-5(3-6)4-8(11)9-7/h1-3,10H,4H2,(H,9,11)

> <PUBCHEM_IUPAC_INCHIKEY>
ZGTUSQAQXWSMDW-UHFFFAOYSA-N

> <PUBCHEM_XLOGP3>
0.8

> <PUBCHEM_EXACT_MASS>
149.047678466

> <PUBCHEM_MOLECULAR_FORMULA>
C8H7NO2

> <PUBCHEM_MOLECULAR_WEIGHT>
149.15

> <PUBCHEM_SMILES>
C1C2=C(C=CC(=C2)O)NC1=O

> <PUBCHEM_CONNECTIVITY_SMILES>
C1C2=C(C=CC(=C2)O)NC1=O

> <PUBCHEM_CACTVS_TPSA>
49.3

> <PUBCHEM_MONOISOTOPIC_WEIGHT>
149.047678466

> <PUBCHEM_TOTAL_CHARGE>
0

> <PUBCHEM_HEAVY_ATOM_COUNT>
11

> <PUBCHEM_ATOM_DEF_STEREO_COUNT>
0

> <PUBCHEM_ATOM_UDEF_STEREO_COUNT>
0

> <PUBCHEM_BOND_DEF_STEREO_COUNT>
0

> <PUBCHEM_BOND_UDEF_STEREO_COUNT>
0

> <PUBCHEM_ISOTOPIC_ATOM_COUNT>
0

> <PUBCHEM_COMPONENT_COUNT>
1

> <PUBCHEM_CACTVS_TAUTO_COUNT>
-1

> <PUBCHEM_COORDINATE_TYPE>
1
5
255

> <PUBCHEM_BONDANNOTATIONS>
10  11  8
4  6  8
4  8  8
6  9  8
8  10  8
9  11  8

$$$$
