77222
  -OEChem-05122608192D

 35 34  0     0  0  0  0  0  0999 V2000
    8.2331   -0.7990    0.0000 F   0  0  0  0  0  0  0  0  0  0  0  0
    7.2331    0.9330    0.0000 F   0  0  0  0  0  0  0  0  0  0  0  0
    8.0991    1.4330    0.0000 F   0  0  0  0  0  0  0  0  0  0  0  0
    9.0991   -0.2990    0.0000 F   0  0  0  0  0  0  0  0  0  0  0  0
    6.3671    0.4330    0.0000 F   0  0  0  0  0  0  0  0  0  0  0  0
    7.3671   -1.2990    0.0000 F   0  0  0  0  0  0  0  0  0  0  0  0
    9.9651    0.2010    0.0000 F   0  0  0  0  0  0  0  0  0  0  0  0
    8.9651    1.9330    0.0000 F   0  0  0  0  0  0  0  0  0  0  0  0
    5.5010   -0.0670    0.0000 F   0  0  0  0  0  0  0  0  0  0  0  0
    6.5010   -1.7990    0.0000 F   0  0  0  0  0  0  0  0  0  0  0  0
   10.8312    0.7010    0.0000 F   0  0  0  0  0  0  0  0  0  0  0  0
    9.8312    2.4330    0.0000 F   0  0  0  0  0  0  0  0  0  0  0  0
    4.6350   -0.5670    0.0000 F   0  0  0  0  0  0  0  0  0  0  0  0
    5.6350   -2.2990    0.0000 F   0  0  0  0  0  0  0  0  0  0  0  0
   11.6972    1.2010    0.0000 F   0  0  0  0  0  0  0  0  0  0  0  0
   10.6972    2.9330    0.0000 F   0  0  0  0  0  0  0  0  0  0  0  0
    3.7690   -1.0670    0.0000 F   0  0  0  0  0  0  0  0  0  0  0  0
    4.7690   -2.7990    0.0000 F   0  0  0  0  0  0  0  0  0  0  0  0
   12.9292    3.0670    0.0000 F   0  0  0  0  0  0  0  0  0  0  0  0
   12.5632    1.7010    0.0000 F   0  0  0  0  0  0  0  0  0  0  0  0
   11.5632    3.4330    0.0000 F   0  0  0  0  0  0  0  0  0  0  0  0
    2.5369   -1.9330    0.0000 O   0  0  0  0  0  0  0  0  0  0  0  0
    3.4030   -3.4330    0.0000 O   0  0  0  0  0  0  0  0  0  0  0  0
    7.7331    0.0670    0.0000 C   0  0  0  0  0  0  0  0  0  0  0  0
    8.5991    0.5670    0.0000 C   0  0  0  0  0  0  0  0  0  0  0  0
    6.8671   -0.4330    0.0000 C   0  0  0  0  0  0  0  0  0  0  0  0
    9.4651    1.0670    0.0000 C   0  0  0  0  0  0  0  0  0  0  0  0
    6.0010   -0.9330    0.0000 C   0  0  0  0  0  0  0  0  0  0  0  0
   10.3312    1.5670    0.0000 C   0  0  0  0  0  0  0  0  0  0  0  0
    5.1350   -1.4330    0.0000 C   0  0  0  0  0  0  0  0  0  0  0  0
   11.1972    2.0670    0.0000 C   0  0  0  0  0  0  0  0  0  0  0  0
    4.2690   -1.9330    0.0000 C   0  0  0  0  0  0  0  0  0  0  0  0
   12.0632    2.5670    0.0000 C   0  0  0  0  0  0  0  0  0  0  0  0
    3.4030   -2.4330    0.0000 C   0  0  0  0  0  0  0  0  0  0  0  0
    2.0000   -2.2430    0.0000 H   0  0  0  0  0  0  0  0  0  0  0  0
  1 24  1  0  0  0  0
  2 24  1  0  0  0  0
  3 25  1  0  0  0  0
  4 25  1  0  0  0  0
  5 26  1  0  0  0  0
  6 26  1  0  0  0  0
  7 27  1  0  0  0  0
  8 27  1  0  0  0  0
  9 28  1  0  0  0  0
 10 28  1  0  0  0  0
 11 29  1  0  0  0  0
 12 29  1  0  0  0  0
 13 30  1  0  0  0  0
 14 30  1  0  0  0  0
 15 31  1  0  0  0  0
 16 31  1  0  0  0  0
 17 32  1  0  0  0  0
 18 32  1  0  0  0  0
 19 33  1  0  0  0  0
 20 33  1  0  0  0  0
 21 33  1  0  0  0  0
 22 34  1  0  0  0  0
 22 35  1  0  0  0  0
 23 34  2  0  0  0  0
 24 25  1  0  0  0  0
 24 26  1  0  0  0  0
 25 27  1  0  0  0  0
 26 28  1  0  0  0  0
 27 29  1  0  0  0  0
 28 30  1  0  0  0  0
 29 31  1  0  0  0  0
 30 32  1  0  0  0  0
 31 33  1  0  0  0  0
 32 34  1  0  0  0  0
M  END
> <PUBCHEM_COMPOUND_CID>
77222

> <PUBCHEM_COMPOUND_CANONICALIZED>
1

> <PUBCHEM_CACTVS_COMPLEXITY>
789

> <PUBCHEM_CACTVS_HBOND_ACCEPTOR>
23

> <PUBCHEM_CACTVS_HBOND_DONOR>
1

> <PUBCHEM_CACTVS_ROTATABLE_BOND>
9

> <PUBCHEM_CACTVS_SUBSKEYS>
AAADcQBwMcAAAAAAAAAAAAAAAAAAAAAAAAAAAAAAAAAAAAAAAAAACwAACAAACAAAgBAACAAAAgAIAACQCAAAAAAAAAAAAAEAAAAAABIAAAAAQAAEAAAAAAGIyKCAAAAAAAAAAAAAAAAAAAAAAAAAAAAAAA==

> <PUBCHEM_IUPAC_OPENEYE_NAME>
2,2,3,3,4,4,5,5,6,6,7,7,8,8,9,9,10,10,11,11,11-henicosafluoroundecanoic acid

> <PUBCHEM_IUPAC_CAS_NAME>
2,2,3,3,4,4,5,5,6,6,7,7,8,8,9,9,10,10,11,11,11-heneicosafluoroundecanoic acid

> <PUBCHEM_IUPAC_NAME_MARKUP>
2,2,3,3,4,4,5,5,6,6,7,7,8,8,9,9,10,10,11,11,11-henicosafluoroundecanoic acid

> <PUBCHEM_IUPAC_NAME>
2,2,3,3,4,4,5,5,6,6,7,7,8,8,9,9,10,10,11,11,11-henicosafluoroundecanoic acid

> <PUBCHEM_IUPAC_SYSTEMATIC_NAME>
2,2,3,3,4,4,5,5,6,6,7,7,8,8,9,9,10,10,11,11,11-henicosakis(fluoranyl)undecanoic acid

> <PUBCHEM_IUPAC_TRADITIONAL_NAME>
2,2,3,3,4,4,5,5,6,6,7,7,8,8,9,9,10,10,11,11,11-heneicosafluoroundecanoic acid

> <PUBCHEM_IUPAC_INCHI>
InChI=1S/C11HF21O2/c12-2(13,1(33)34)3(14,15)4(16,17)5(18,19)6(20,21)7(22,23)8(24,25)9(26,27)10(28,29)11(30,31)32/h(H,33,34)

> <PUBCHEM_IUPAC_INCHIKEY>
SIDINRCMMRKXGQ-UHFFFAOYSA-N

> <PUBCHEM_XLOGP3_AA>
6.9

> <PUBCHEM_EXACT_MASS>
563.9641207

> <PUBCHEM_MOLECULAR_FORMULA>
C11HF21O2

> <PUBCHEM_MOLECULAR_WEIGHT>
564.09

> <PUBCHEM_SMILES>
C(=O)(C(C(C(C(C(C(C(C(C(C(F)(F)F)(F)F)(F)F)(F)F)(F)F)(F)F)(F)F)(F)F)(F)F)(F)F)O

> <PUBCHEM_CONNECTIVITY_SMILES>
C(=O)(C(C(C(C(C(C(C(C(C(C(F)(F)F)(F)F)(F)F)(F)F)(F)F)(F)F)(F)F)(F)F)(F)F)(F)F)O

> <PUBCHEM_CACTVS_TPSA>
37.3

> <PUBCHEM_MONOISOTOPIC_WEIGHT>
563.9641207

> <PUBCHEM_TOTAL_CHARGE>
0

> <PUBCHEM_HEAVY_ATOM_COUNT>
34

> <PUBCHEM_ATOM_DEF_STEREO_COUNT>
0

> <PUBCHEM_ATOM_UDEF_STEREO_COUNT>
0

> <PUBCHEM_BOND_DEF_STEREO_COUNT>
0

> <PUBCHEM_BOND_UDEF_STEREO_COUNT>
0

> <PUBCHEM_ISOTOPIC_ATOM_COUNT>
0

> <PUBCHEM_COMPONENT_COUNT>
1

> <PUBCHEM_CACTVS_TAUTO_COUNT>
-1

> <PUBCHEM_COORDINATE_TYPE>
1
5
255

$$$$
