77442
  -OEChem-05122608162D

 49 48  0     1  0  0  0  0  0999 V2000
    9.7942    1.4330    0.0000 S   0  0  0  0  0  0  0  0  0  0  0  0
   14.1244    1.9330    0.0000 P   0  0  0  0  0  0  0  0  0  0  0  0
    6.6962    0.7990    0.0000 F   0  0  0  0  0  0  0  0  0  0  0  0
    7.6962   -0.9330    0.0000 F   0  0  0  0  0  0  0  0  0  0  0  0
    8.5622   -0.4330    0.0000 F   0  0  0  0  0  0  0  0  0  0  0  0
    7.5622    1.2990    0.0000 F   0  0  0  0  0  0  0  0  0  0  0  0
    5.8301    0.2990    0.0000 F   0  0  0  0  0  0  0  0  0  0  0  0
    6.8301   -1.4330    0.0000 F   0  0  0  0  0  0  0  0  0  0  0  0
    9.4282    0.0670    0.0000 F   0  0  0  0  0  0  0  0  0  0  0  0
    8.4282    1.7990    0.0000 F   0  0  0  0  0  0  0  0  0  0  0  0
    4.9641   -0.2010    0.0000 F   0  0  0  0  0  0  0  0  0  0  0  0
    5.9641   -1.9330    0.0000 F   0  0  0  0  0  0  0  0  0  0  0  0
    4.0981   -0.7010    0.0000 F   0  0  0  0  0  0  0  0  0  0  0  0
    5.0981   -2.4330    0.0000 F   0  0  0  0  0  0  0  0  0  0  0  0
    3.2321   -1.2010    0.0000 F   0  0  0  0  0  0  0  0  0  0  0  0
    4.2321   -2.9330    0.0000 F   0  0  0  0  0  0  0  0  0  0  0  0
    2.0000   -3.0670    0.0000 F   0  0  0  0  0  0  0  0  0  0  0  0
    2.3660   -1.7010    0.0000 F   0  0  0  0  0  0  0  0  0  0  0  0
    3.3660   -3.4330    0.0000 F   0  0  0  0  0  0  0  0  0  0  0  0
   10.2942    0.5670    0.0000 O   0  0  0  0  0  0  0  0  0  0  0  0
    9.2942    2.2990    0.0000 O   0  0  0  0  0  0  0  0  0  0  0  0
   13.2583    1.4330    0.0000 O   0  0  0  0  0  0  0  0  0  0  0  0
   14.9904    2.4330    0.0000 O   0  0  0  0  0  0  0  0  0  0  0  0
   14.6244    1.0670    0.0000 O   0  0  0  0  0  0  0  0  0  0  0  0
   13.6244    2.7990    0.0000 O   0  0  0  0  0  0  0  0  0  0  0  0
   10.6603    1.9330    0.0000 N   0  0  3  0  0  0  0  0  0  0  0  0
    7.1962   -0.0670    0.0000 C   0  0  0  0  0  0  0  0  0  0  0  0
    8.0622    0.4330    0.0000 C   0  0  0  0  0  0  0  0  0  0  0  0
    6.3301   -0.5670    0.0000 C   0  0  0  0  0  0  0  0  0  0  0  0
    8.9282    0.9330    0.0000 C   0  0  0  0  0  0  0  0  0  0  0  0
    5.4641   -1.0670    0.0000 C   0  0  0  0  0  0  0  0  0  0  0  0
    4.5981   -1.5670    0.0000 C   0  0  0  0  0  0  0  0  0  0  0  0
   11.5263    1.4330    0.0000 C   0  0  0  0  0  0  0  0  0  0  0  0
    3.7321   -2.0670    0.0000 C   0  0  0  0  0  0  0  0  0  0  0  0
   10.6603    2.9330    0.0000 C   0  0  0  0  0  0  0  0  0  0  0  0
   12.3923    1.9330    0.0000 C   0  0  0  0  0  0  0  0  0  0  0  0
    2.8660   -2.5670    0.0000 C   0  0  0  0  0  0  0  0  0  0  0  0
   11.5263    3.4330    0.0000 C   0  0  0  0  0  0  0  0  0  0  0  0
   11.1278    0.9581    0.0000 H   0  0  0  0  0  0  0  0  0  0  0  0
   11.9248    0.9581    0.0000 H   0  0  0  0  0  0  0  0  0  0  0  0
   10.4482    3.5156    0.0000 H   0  0  0  0  0  0  0  0  0  0  0  0
   10.0497    2.8254    0.0000 H   0  0  0  0  0  0  0  0  0  0  0  0
   12.7908    2.4080    0.0000 H   0  0  0  0  0  0  0  0  0  0  0  0
   11.9938    2.4080    0.0000 H   0  0  0  0  0  0  0  0  0  0  0  0
   11.8363    2.8961    0.0000 H   0  0  0  0  0  0  0  0  0  0  0  0
   12.0632    3.7430    0.0000 H   0  0  0  0  0  0  0  0  0  0  0  0
   11.2163    3.9700    0.0000 H   0  0  0  0  0  0  0  0  0  0  0  0
   15.5273    2.1230    0.0000 H   0  0  0  0  0  0  0  0  0  0  0  0
   14.3144    0.5301    0.0000 H   0  0  0  0  0  0  0  0  0  0  0  0
  1 20  2  0  0  0  0
  1 21  2  0  0  0  0
  1 26  1  0  0  0  0
  1 30  1  0  0  0  0
  2 22  1  0  0  0  0
  2 23  1  0  0  0  0
  2 24  1  0  0  0  0
  2 25  2  0  0  0  0
  3 27  1  0  0  0  0
  4 27  1  0  0  0  0
  5 28  1  0  0  0  0
  6 28  1  0  0  0  0
  7 29  1  0  0  0  0
  8 29  1  0  0  0  0
  9 30  1  0  0  0  0
 10 30  1  0  0  0  0
 11 31  1  0  0  0  0
 12 31  1  0  0  0  0
 13 32  1  0  0  0  0
 14 32  1  0  0  0  0
 15 34  1  0  0  0  0
 16 34  1  0  0  0  0
 17 37  1  0  0  0  0
 18 37  1  0  0  0  0
 19 37  1  0  0  0  0
 22 36  1  0  0  0  0
 23 48  1  0  0  0  0
 24 49  1  0  0  0  0
 26 33  1  0  0  0  0
 26 35  1  0  0  0  0
 27 28  1  0  0  0  0
 27 29  1  0  0  0  0
 28 30  1  0  0  0  0
 29 31  1  0  0  0  0
 31 32  1  0  0  0  0
 32 34  1  0  0  0  0
 33 36  1  0  0  0  0
 33 39  1  0  0  0  0
 33 40  1  0  0  0  0
 34 37  1  0  0  0  0
 35 38  1  0  0  0  0
 35 41  1  0  0  0  0
 35 42  1  0  0  0  0
 36 43  1  0  0  0  0
 36 44  1  0  0  0  0
 38 45  1  0  0  0  0
 38 46  1  0  0  0  0
 38 47  1  0  0  0  0
M  END
> <PUBCHEM_COMPOUND_CID>
77442

> <PUBCHEM_COMPOUND_CANONICALIZED>
1

> <PUBCHEM_CACTVS_COMPLEXITY>
1000

> <PUBCHEM_CACTVS_HBOND_ACCEPTOR>
24

> <PUBCHEM_CACTVS_HBOND_DONOR>
2

> <PUBCHEM_CACTVS_ROTATABLE_BOND>
13

> <PUBCHEM_CACTVS_SUBSKEYS>
AAADccByOcJAAAAAAAAAAAAAAAAAAAAAAAAAAAAAAAAAAAAAAAAAHwQASCAACADhwBYCAAIAARIAQAAAAPBAAAAAAAAAAAAIAAACAAIAAAAAAAAAAACQAAEAgIAAAAAAAAAAAAAAAAAAAAAAAAAAAAAAAA==

> <PUBCHEM_IUPAC_OPENEYE_NAME>
2-[ethyl(1,1,2,2,3,3,4,4,5,5,6,6,7,7,8,8,8-heptadecafluorooctylsulfonyl)amino]ethyl dihydrogen phosphate

> <PUBCHEM_IUPAC_CAS_NAME>
2-[ethyl(1,1,2,2,3,3,4,4,5,5,6,6,7,7,8,8,8-heptadecafluorooctylsulfonyl)amino]ethyl dihydrogen phosphate

> <PUBCHEM_IUPAC_NAME_MARKUP>
2-[ethyl(1,1,2,2,3,3,4,4,5,5,6,6,7,7,8,8,8-heptadecafluorooctylsulfonyl)amino]ethyl dihydrogen phosphate

> <PUBCHEM_IUPAC_NAME>
2-[ethyl(1,1,2,2,3,3,4,4,5,5,6,6,7,7,8,8,8-heptadecafluorooctylsulfonyl)amino]ethyl dihydrogen phosphate

> <PUBCHEM_IUPAC_SYSTEMATIC_NAME>
2-[ethyl-[1,1,2,2,3,3,4,4,5,5,6,6,7,7,8,8,8-heptadecakis(fluoranyl)octylsulfonyl]amino]ethyl dihydrogen phosphate

> <PUBCHEM_IUPAC_TRADITIONAL_NAME>
2-[ethyl(1,1,2,2,3,3,4,4,5,5,6,6,7,7,8,8,8-heptadecafluorooctylsulfonyl)amino]ethyl dihydrogen phosphate

> <PUBCHEM_IUPAC_INCHI>
InChI=1S/C12H11F17NO6PS/c1-2-30(3-4-36-37(31,32)33)38(34,35)12(28,29)10(23,24)8(19,20)6(15,16)5(13,14)7(17,18)9(21,22)11(25,26)27/h2-4H2,1H3,(H2,31,32,33)

> <PUBCHEM_IUPAC_INCHIKEY>
JRSUJBJSUYPODE-UHFFFAOYSA-N

> <PUBCHEM_XLOGP3_AA>
4

> <PUBCHEM_EXACT_MASS>
650.9773240

> <PUBCHEM_MOLECULAR_FORMULA>
C12H11F17NO6PS

> <PUBCHEM_MOLECULAR_WEIGHT>
651.23

> <PUBCHEM_SMILES>
CCN(CCOP(=O)(O)O)S(=O)(=O)C(C(C(C(C(C(C(C(F)(F)F)(F)F)(F)F)(F)F)(F)F)(F)F)(F)F)(F)F

> <PUBCHEM_CONNECTIVITY_SMILES>
CCN(CCOP(=O)(O)O)S(=O)(=O)C(C(C(C(C(C(C(C(F)(F)F)(F)F)(F)F)(F)F)(F)F)(F)F)(F)F)(F)F

> <PUBCHEM_CACTVS_TPSA>
113

> <PUBCHEM_MONOISOTOPIC_WEIGHT>
650.9773240

> <PUBCHEM_TOTAL_CHARGE>
0

> <PUBCHEM_HEAVY_ATOM_COUNT>
38

> <PUBCHEM_ATOM_DEF_STEREO_COUNT>
0

> <PUBCHEM_ATOM_UDEF_STEREO_COUNT>
0

> <PUBCHEM_BOND_DEF_STEREO_COUNT>
0

> <PUBCHEM_BOND_UDEF_STEREO_COUNT>
0

> <PUBCHEM_ISOTOPIC_ATOM_COUNT>
0

> <PUBCHEM_COMPONENT_COUNT>
1

> <PUBCHEM_CACTVS_TAUTO_COUNT>
-1

> <PUBCHEM_COORDINATE_TYPE>
1
5
255

$$$$
