77664
  -OEChem-05122609492D

 26 25  0     0  0  0  0  0  0999 V2000
    7.1962    0.4050    0.0000 O   0  0  0  0  0  0  0  0  0  0  0  0
    3.7321    0.4050    0.0000 O   0  0  0  0  0  0  0  0  0  0  0  0
    5.4641   -0.5950    0.0000 O   0  0  0  0  0  0  0  0  0  0  0  0
    5.4641    0.4050    0.0000 C   0  0  0  0  0  0  0  0  0  0  0  0
    6.3301    0.9050    0.0000 C   0  0  0  0  0  0  0  0  0  0  0  0
    4.5981    0.9050    0.0000 C   0  0  0  0  0  0  0  0  0  0  0  0
    8.0622    0.9050    0.0000 C   0  0  0  0  0  0  0  0  0  0  0  0
    2.8660    0.9050    0.0000 C   0  0  0  0  0  0  0  0  0  0  0  0
    8.9282    0.4050    0.0000 C   0  0  0  0  0  0  0  0  0  0  0  0
    2.0000    0.4050    0.0000 C   0  0  0  0  0  0  0  0  0  0  0  0
    6.0010    0.0950    0.0000 H   0  0  0  0  0  0  0  0  0  0  0  0
    6.7287    1.3800    0.0000 H   0  0  0  0  0  0  0  0  0  0  0  0
    5.9316    1.3800    0.0000 H   0  0  0  0  0  0  0  0  0  0  0  0
    4.9966    1.3800    0.0000 H   0  0  0  0  0  0  0  0  0  0  0  0
    4.1996    1.3800    0.0000 H   0  0  0  0  0  0  0  0  0  0  0  0
    8.4607    1.3800    0.0000 H   0  0  0  0  0  0  0  0  0  0  0  0
    7.6637    1.3800    0.0000 H   0  0  0  0  0  0  0  0  0  0  0  0
    3.2646    1.3800    0.0000 H   0  0  0  0  0  0  0  0  0  0  0  0
    2.4675    1.3800    0.0000 H   0  0  0  0  0  0  0  0  0  0  0  0
    4.9272   -0.9050    0.0000 H   0  0  0  0  0  0  0  0  0  0  0  0
    8.6182   -0.1319    0.0000 H   0  0  0  0  0  0  0  0  0  0  0  0
    9.4651    0.0950    0.0000 H   0  0  0  0  0  0  0  0  0  0  0  0
    9.2382    0.9419    0.0000 H   0  0  0  0  0  0  0  0  0  0  0  0
    1.6900    0.9419    0.0000 H   0  0  0  0  0  0  0  0  0  0  0  0
    1.4631    0.0950    0.0000 H   0  0  0  0  0  0  0  0  0  0  0  0
    2.3100   -0.1319    0.0000 H   0  0  0  0  0  0  0  0  0  0  0  0
  1  5  1  0  0  0  0
  1  7  1  0  0  0  0
  2  6  1  0  0  0  0
  2  8  1  0  0  0  0
  3  4  1  0  0  0  0
  3 20  1  0  0  0  0
  4  5  1  0  0  0  0
  4  6  1  0  0  0  0
  4 11  1  0  0  0  0
  5 12  1  0  0  0  0
  5 13  1  0  0  0  0
  6 14  1  0  0  0  0
  6 15  1  0  0  0  0
  7  9  1  0  0  0  0
  7 16  1  0  0  0  0
  7 17  1  0  0  0  0
  8 10  1  0  0  0  0
  8 18  1  0  0  0  0
  8 19  1  0  0  0  0
  9 21  1  0  0  0  0
  9 22  1  0  0  0  0
  9 23  1  0  0  0  0
 10 24  1  0  0  0  0
 10 25  1  0  0  0  0
 10 26  1  0  0  0  0
M  END
> <PUBCHEM_COMPOUND_CID>
77664

> <PUBCHEM_COMPOUND_CANONICALIZED>
1

> <PUBCHEM_CACTVS_COMPLEXITY>
57.9

> <PUBCHEM_CACTVS_HBOND_ACCEPTOR>
3

> <PUBCHEM_CACTVS_HBOND_DONOR>
1

> <PUBCHEM_CACTVS_ROTATABLE_BOND>
6

> <PUBCHEM_CACTVS_SUBSKEYS>
AAADceBgMAAAAAAAAAAAAAAAAAAAAAAAAAAAAAAAAAAAAAAAAAAAGgAACAAACBSggAICAAAABgAAAAAAAAAAAAAAAAAAAAAAAAABEAAAAAACAAABAAADAAAAAAAAAAAAAAAAAAAAAAAAAAAAAAAAAAAAAA==

> <PUBCHEM_IUPAC_OPENEYE_NAME>
1,3-diethoxypropan-2-ol

> <PUBCHEM_IUPAC_CAS_NAME>
1,3-diethoxy-2-propanol

> <PUBCHEM_IUPAC_NAME_MARKUP>
1,3-diethoxypropan-2-ol

> <PUBCHEM_IUPAC_NAME>
1,3-diethoxypropan-2-ol

> <PUBCHEM_IUPAC_SYSTEMATIC_NAME>
1,3-diethoxypropan-2-ol

> <PUBCHEM_IUPAC_TRADITIONAL_NAME>
1,3-diethoxypropan-2-ol

> <PUBCHEM_IUPAC_INCHI>
InChI=1S/C7H16O3/c1-3-9-5-7(8)6-10-4-2/h7-8H,3-6H2,1-2H3

> <PUBCHEM_IUPAC_INCHIKEY>
WIHIUTUAHOZVLE-UHFFFAOYSA-N

> <PUBCHEM_XLOGP3_AA>
0

> <PUBCHEM_EXACT_MASS>
148.109944368

> <PUBCHEM_MOLECULAR_FORMULA>
C7H16O3

> <PUBCHEM_MOLECULAR_WEIGHT>
148.20

> <PUBCHEM_SMILES>
CCOCC(COCC)O

> <PUBCHEM_CONNECTIVITY_SMILES>
CCOCC(COCC)O

> <PUBCHEM_CACTVS_TPSA>
38.7

> <PUBCHEM_MONOISOTOPIC_WEIGHT>
148.109944368

> <PUBCHEM_TOTAL_CHARGE>
0

> <PUBCHEM_HEAVY_ATOM_COUNT>
10

> <PUBCHEM_ATOM_DEF_STEREO_COUNT>
0

> <PUBCHEM_ATOM_UDEF_STEREO_COUNT>
0

> <PUBCHEM_BOND_DEF_STEREO_COUNT>
0

> <PUBCHEM_BOND_UDEF_STEREO_COUNT>
0

> <PUBCHEM_ISOTOPIC_ATOM_COUNT>
0

> <PUBCHEM_COMPONENT_COUNT>
1

> <PUBCHEM_CACTVS_TAUTO_COUNT>
-1

> <PUBCHEM_COORDINATE_TYPE>
1
5
255

$$$$
