77907
  -OEChem-05122610002D

 18 18  0     0  0  0  0  0  0999 V2000
    2.8090   -0.2652    0.0000 O   0  0  0  0  0  0  0  0  0  0  0  0
    4.5691    0.0135    0.0000 C   0  0  0  0  0  0  0  0  0  0  0  0
    4.7770   -0.9646    0.0000 C   0  0  0  0  0  0  0  0  0  0  0  0
    3.6180    0.3226    0.0000 C   0  0  0  0  0  0  0  0  0  0  0  0
    5.7281   -1.2736    0.0000 C   0  0  0  0  0  0  0  0  0  0  0  0
    3.3090    1.2736    0.0000 C   0  0  0  0  0  0  0  0  0  0  0  0
    2.3090    1.2736    0.0000 C   0  0  0  0  0  0  0  0  0  0  0  0
    2.0000    0.3226    0.0000 C   0  0  0  0  0  0  0  0  0  0  0  0
    5.1887    0.0352    0.0000 H   0  0  0  0  0  0  0  0  0  0  0  0
    4.6554    0.6275    0.0000 H   0  0  0  0  0  0  0  0  0  0  0  0
    4.1574   -0.9862    0.0000 H   0  0  0  0  0  0  0  0  0  0  0  0
    4.6907   -1.5786    0.0000 H   0  0  0  0  0  0  0  0  0  0  0  0
    5.5365   -1.8633    0.0000 H   0  0  0  0  0  0  0  0  0  0  0  0
    6.3177   -1.4652    0.0000 H   0  0  0  0  0  0  0  0  0  0  0  0
    5.9197   -0.6840    0.0000 H   0  0  0  0  0  0  0  0  0  0  0  0
    3.6734    1.7752    0.0000 H   0  0  0  0  0  0  0  0  0  0  0  0
    1.9446    1.7752    0.0000 H   0  0  0  0  0  0  0  0  0  0  0  0
    1.4103    0.1310    0.0000 H   0  0  0  0  0  0  0  0  0  0  0  0
  1  4  1  0  0  0  0
  1  8  1  0  0  0  0
  2  3  1  0  0  0  0
  2  4  1  0  0  0  0
  2  9  1  0  0  0  0
  2 10  1  0  0  0  0
  3  5  1  0  0  0  0
  3 11  1  0  0  0  0
  3 12  1  0  0  0  0
  4  6  2  0  0  0  0
  5 13  1  0  0  0  0
  5 14  1  0  0  0  0
  5 15  1  0  0  0  0
  6  7  1  0  0  0  0
  6 16  1  0  0  0  0
  7  8  2  0  0  0  0
  7 17  1  0  0  0  0
  8 18  1  0  0  0  0
M  END
> <PUBCHEM_COMPOUND_CID>
77907

> <PUBCHEM_COMPOUND_CANONICALIZED>
1

> <PUBCHEM_CACTVS_COMPLEXITY>
61.4

> <PUBCHEM_CACTVS_HBOND_ACCEPTOR>
1

> <PUBCHEM_CACTVS_HBOND_DONOR>
0

> <PUBCHEM_CACTVS_ROTATABLE_BOND>
2

> <PUBCHEM_CACTVS_SUBSKEYS>
AAADccBgIAAAAAAAAAAAAAAAAAAAASAAAAAAAAAAAAAAAAABgAAAGgAAAAAACASgkAIyBIAABECIAKhSgAACCAAkIAAIiAEGCMgMJjKENRqCGSCkwBEIqYeIyCCAAAAAAAAAAAAAAAAAAAAAAAAAAAAAAA==

> <PUBCHEM_IUPAC_OPENEYE_NAME>
2-propylfuran

> <PUBCHEM_IUPAC_CAS_NAME>
2-propylfuran

> <PUBCHEM_IUPAC_NAME_MARKUP>
2-propylfuran

> <PUBCHEM_IUPAC_NAME>
2-propylfuran

> <PUBCHEM_IUPAC_SYSTEMATIC_NAME>
2-propylfuran

> <PUBCHEM_IUPAC_TRADITIONAL_NAME>
2-propylfuran

> <PUBCHEM_IUPAC_INCHI>
InChI=1S/C7H10O/c1-2-4-7-5-3-6-8-7/h3,5-6H,2,4H2,1H3

> <PUBCHEM_IUPAC_INCHIKEY>
CPLJMYOQYRCCBY-UHFFFAOYSA-N

> <PUBCHEM_XLOGP3>
2.6

> <PUBCHEM_EXACT_MASS>
110.073164938

> <PUBCHEM_MOLECULAR_FORMULA>
C7H10O

> <PUBCHEM_MOLECULAR_WEIGHT>
110.15

> <PUBCHEM_SMILES>
CCCC1=CC=CO1

> <PUBCHEM_CONNECTIVITY_SMILES>
CCCC1=CC=CO1

> <PUBCHEM_CACTVS_TPSA>
13.1

> <PUBCHEM_MONOISOTOPIC_WEIGHT>
110.073164938

> <PUBCHEM_TOTAL_CHARGE>
0

> <PUBCHEM_HEAVY_ATOM_COUNT>
8

> <PUBCHEM_ATOM_DEF_STEREO_COUNT>
0

> <PUBCHEM_ATOM_UDEF_STEREO_COUNT>
0

> <PUBCHEM_BOND_DEF_STEREO_COUNT>
0

> <PUBCHEM_BOND_UDEF_STEREO_COUNT>
0

> <PUBCHEM_ISOTOPIC_ATOM_COUNT>
0

> <PUBCHEM_COMPONENT_COUNT>
1

> <PUBCHEM_CACTVS_TAUTO_COUNT>
-1

> <PUBCHEM_COORDINATE_TYPE>
1
5
255

> <PUBCHEM_BONDANNOTATIONS>
1  4  8
1  8  8
4  6  8
6  7  8
7  8  8

$$$$
