78569
  -OEChem-05122609512D

 19 20  0     0  0  0  0  0  0999 V2000
    6.7619   -1.0631    0.0000 O   0  0  0  0  0  0  0  0  0  0  0  0
    4.6783    0.6077    0.0000 N   0  0  0  0  0  0  0  0  0  0  0  0
    4.6783   -1.0018    0.0000 N   0  0  0  0  0  0  0  0  0  0  0  0
    3.7321    0.3030    0.0000 C   0  0  0  0  0  0  0  0  0  0  0  0
    3.7321   -0.6970    0.0000 C   0  0  0  0  0  0  0  0  0  0  0  0
    5.2619   -0.1970    0.0000 C   0  0  0  0  0  0  0  0  0  0  0  0
    2.8660    0.8030    0.0000 C   0  0  0  0  0  0  0  0  0  0  0  0
    2.8660   -1.1970    0.0000 C   0  0  0  0  0  0  0  0  0  0  0  0
    6.2619   -0.1970    0.0000 C   0  0  0  0  0  0  0  0  0  0  0  0
    2.0000    0.3030    0.0000 C   0  0  0  0  0  0  0  0  0  0  0  0
    2.0000   -0.6970    0.0000 C   0  0  0  0  0  0  0  0  0  0  0  0
    4.8709    1.1970    0.0000 H   0  0  0  0  0  0  0  0  0  0  0  0
    2.8660    1.4230    0.0000 H   0  0  0  0  0  0  0  0  0  0  0  0
    2.8660   -1.8170    0.0000 H   0  0  0  0  0  0  0  0  0  0  0  0
    6.8445    0.0150    0.0000 H   0  0  0  0  0  0  0  0  0  0  0  0
    6.1542    0.4136    0.0000 H   0  0  0  0  0  0  0  0  0  0  0  0
    1.4631    0.6130    0.0000 H   0  0  0  0  0  0  0  0  0  0  0  0
    1.4631   -1.0070    0.0000 H   0  0  0  0  0  0  0  0  0  0  0  0
    7.3819   -1.0631    0.0000 H   0  0  0  0  0  0  0  0  0  0  0  0
  1  9  1  0  0  0  0
  1 19  1  0  0  0  0
  2  4  1  0  0  0  0
  2  6  1  0  0  0  0
  2 12  1  0  0  0  0
  3  5  1  0  0  0  0
  3  6  2  0  0  0  0
  4  5  1  0  0  0  0
  4  7  2  0  0  0  0
  5  8  2  0  0  0  0
  6  9  1  0  0  0  0
  7 10  1  0  0  0  0
  7 13  1  0  0  0  0
  8 11  1  0  0  0  0
  8 14  1  0  0  0  0
  9 15  1  0  0  0  0
  9 16  1  0  0  0  0
 10 11  2  0  0  0  0
 10 17  1  0  0  0  0
 11 18  1  0  0  0  0
M  END
> <PUBCHEM_COMPOUND_CID>
78569

> <PUBCHEM_COMPOUND_CANONICALIZED>
1

> <PUBCHEM_CACTVS_COMPLEXITY>
140

> <PUBCHEM_CACTVS_HBOND_ACCEPTOR>
2

> <PUBCHEM_CACTVS_HBOND_DONOR>
2

> <PUBCHEM_CACTVS_ROTATABLE_BOND>
1

> <PUBCHEM_CACTVS_SUBSKEYS>
AAADccBzIAAAAAAAAAAAAAAAAAAAAWAAAAAwAAAAAAAAAFgB8AAAHgAQCAAACAihlwIx0LbJkgCgASZiZASCgC2hEqAJmSAwdJiKeKLAmZGUIAhokALYyCcQAAAAAAAAAAAAACAAAAAAAAAAQAAAAAAAAA==

> <PUBCHEM_IUPAC_OPENEYE_NAME>
1H-benzimidazol-2-ylmethanol

> <PUBCHEM_IUPAC_CAS_NAME>
1H-benzimidazol-2-ylmethanol

> <PUBCHEM_IUPAC_NAME_MARKUP>
1<I>H</I>-benzimidazol-2-ylmethanol

> <PUBCHEM_IUPAC_NAME>
1H-benzimidazol-2-ylmethanol

> <PUBCHEM_IUPAC_SYSTEMATIC_NAME>
1H-benzimidazol-2-ylmethanol

> <PUBCHEM_IUPAC_TRADITIONAL_NAME>
1H-benzimidazol-2-ylmethanol

> <PUBCHEM_IUPAC_INCHI>
InChI=1S/C8H8N2O/c11-5-8-9-6-3-1-2-4-7(6)10-8/h1-4,11H,5H2,(H,9,10)

> <PUBCHEM_IUPAC_INCHIKEY>
IAJLTMBBAVVMQO-UHFFFAOYSA-N

> <PUBCHEM_XLOGP3>
0.9

> <PUBCHEM_EXACT_MASS>
148.063662883

> <PUBCHEM_MOLECULAR_FORMULA>
C8H8N2O

> <PUBCHEM_MOLECULAR_WEIGHT>
148.16

> <PUBCHEM_SMILES>
C1=CC=C2C(=C1)NC(=N2)CO

> <PUBCHEM_CONNECTIVITY_SMILES>
C1=CC=C2C(=C1)NC(=N2)CO

> <PUBCHEM_CACTVS_TPSA>
48.9

> <PUBCHEM_MONOISOTOPIC_WEIGHT>
148.063662883

> <PUBCHEM_TOTAL_CHARGE>
0

> <PUBCHEM_HEAVY_ATOM_COUNT>
11

> <PUBCHEM_ATOM_DEF_STEREO_COUNT>
0

> <PUBCHEM_ATOM_UDEF_STEREO_COUNT>
0

> <PUBCHEM_BOND_DEF_STEREO_COUNT>
0

> <PUBCHEM_BOND_UDEF_STEREO_COUNT>
0

> <PUBCHEM_ISOTOPIC_ATOM_COUNT>
0

> <PUBCHEM_COMPONENT_COUNT>
1

> <PUBCHEM_CACTVS_TAUTO_COUNT>
-1

> <PUBCHEM_COORDINATE_TYPE>
1
5
255

> <PUBCHEM_BONDANNOTATIONS>
10  11  8
2  4  8
2  6  8
3  5  8
3  6  8
4  5  8
4  7  8
5  8  8
7  10  8
8  11  8

$$$$
