78700
  -OEChem-05122608402D

 23 23  0     0  0  0  0  0  0999 V2000
    9.4651    1.3450    0.0000 O   0  0  0  0  0  0  0  0  0  0  0  0
    2.5369    1.3450    0.0000 O   0  0  0  0  0  0  0  0  0  0  0  0
    7.7331    1.3450    0.0000 N   0  0  0  0  0  0  0  0  0  0  0  0
    4.2690    1.3450    0.0000 N   0  0  0  0  0  0  0  0  0  0  0  0
    6.0010    1.3450    0.0000 N   0  0  0  0  0  0  0  0  0  0  0  0
    5.1350   -0.1550    0.0000 N   0  0  0  0  0  0  0  0  0  0  0  0
    6.8671   -0.1550    0.0000 N   0  0  0  0  0  0  0  0  0  0  0  0
    6.0010   -1.6550    0.0000 N   0  0  0  0  0  0  0  0  0  0  0  0
    6.8671    0.8450    0.0000 C   0  0  0  0  0  0  0  0  0  0  0  0
    5.1350    0.8450    0.0000 C   0  0  0  0  0  0  0  0  0  0  0  0
    6.0010   -0.6550    0.0000 C   0  0  0  0  0  0  0  0  0  0  0  0
    8.5991    0.8450    0.0000 C   0  0  0  0  0  0  0  0  0  0  0  0
    3.4030    0.8450    0.0000 C   0  0  0  0  0  0  0  0  0  0  0  0
    7.7331    1.9650    0.0000 H   0  0  0  0  0  0  0  0  0  0  0  0
    4.2690    1.9650    0.0000 H   0  0  0  0  0  0  0  0  0  0  0  0
    8.2006    0.3701    0.0000 H   0  0  0  0  0  0  0  0  0  0  0  0
    8.9976    0.3701    0.0000 H   0  0  0  0  0  0  0  0  0  0  0  0
    3.0044    0.3701    0.0000 H   0  0  0  0  0  0  0  0  0  0  0  0
    3.8015    0.3701    0.0000 H   0  0  0  0  0  0  0  0  0  0  0  0
    5.4641   -1.9650    0.0000 H   0  0  0  0  0  0  0  0  0  0  0  0
    6.5380   -1.9650    0.0000 H   0  0  0  0  0  0  0  0  0  0  0  0
   10.0021    1.0350    0.0000 H   0  0  0  0  0  0  0  0  0  0  0  0
    2.0000    1.0350    0.0000 H   0  0  0  0  0  0  0  0  0  0  0  0
  1 12  1  0  0  0  0
  1 22  1  0  0  0  0
  2 13  1  0  0  0  0
  2 23  1  0  0  0  0
  3  9  1  0  0  0  0
  3 12  1  0  0  0  0
  3 14  1  0  0  0  0
  4 10  1  0  0  0  0
  4 13  1  0  0  0  0
  4 15  1  0  0  0  0
  5  9  2  0  0  0  0
  5 10  1  0  0  0  0
  6 10  2  0  0  0  0
  6 11  1  0  0  0  0
  7  9  1  0  0  0  0
  7 11  2  0  0  0  0
  8 11  1  0  0  0  0
  8 20  1  0  0  0  0
  8 21  1  0  0  0  0
 12 16  1  0  0  0  0
 12 17  1  0  0  0  0
 13 18  1  0  0  0  0
 13 19  1  0  0  0  0
M  END
> <PUBCHEM_COMPOUND_CID>
78700

> <PUBCHEM_COMPOUND_CANONICALIZED>
1

> <PUBCHEM_CACTVS_COMPLEXITY>
133

> <PUBCHEM_CACTVS_HBOND_ACCEPTOR>
8

> <PUBCHEM_CACTVS_HBOND_DONOR>
5

> <PUBCHEM_CACTVS_ROTATABLE_BOND>
4

> <PUBCHEM_CACTVS_SUBSKEYS>
AAADccBjsAAAAAAAAAAAAAAAAAAAAAAAAAAsAAAAAAAAAAABgAAAFgAQCAAAAAAAAAYBEAbIEgAgAAAAJAAAAAkAAIABAIAIAAGAGAAAAAAAAAAIAAAAAAAAAAAAAAAAAAAAAAAAAAAAAAAAAAAAAAAAAA==

> <PUBCHEM_IUPAC_OPENEYE_NAME>
[[4-amino-6-(hydroxymethylamino)-1,3,5-triazin-2-yl]amino]methanol

> <PUBCHEM_IUPAC_CAS_NAME>
[[4-amino-6-(hydroxymethylamino)-1,3,5-triazin-2-yl]amino]methanol

> <PUBCHEM_IUPAC_NAME_MARKUP>
[[4-amino-6-(hydroxymethylamino)-1,3,5-triazin-2-yl]amino]methanol

> <PUBCHEM_IUPAC_NAME>
[[4-amino-6-(hydroxymethylamino)-1,3,5-triazin-2-yl]amino]methanol

> <PUBCHEM_IUPAC_SYSTEMATIC_NAME>
[[4-azanyl-6-(hydroxymethylamino)-1,3,5-triazin-2-yl]amino]methanol

> <PUBCHEM_IUPAC_TRADITIONAL_NAME>
[[4-amino-6-(methylolamino)-s-triazin-2-yl]amino]methanol

> <PUBCHEM_IUPAC_INCHI>
InChI=1S/C5H10N6O2/c6-3-9-4(7-1-12)11-5(10-3)8-2-13/h12-13H,1-2H2,(H4,6,7,8,9,10,11)

> <PUBCHEM_IUPAC_INCHIKEY>
SUPOBRXPULIDDX-UHFFFAOYSA-N

> <PUBCHEM_XLOGP3_AA>
-0.9

> <PUBCHEM_EXACT_MASS>
186.08652358

> <PUBCHEM_MOLECULAR_FORMULA>
C5H10N6O2

> <PUBCHEM_MOLECULAR_WEIGHT>
186.17

> <PUBCHEM_SMILES>
C(NC1=NC(=NC(=N1)N)NCO)O

> <PUBCHEM_CONNECTIVITY_SMILES>
C(NC1=NC(=NC(=N1)N)NCO)O

> <PUBCHEM_CACTVS_TPSA>
129

> <PUBCHEM_MONOISOTOPIC_WEIGHT>
186.08652358

> <PUBCHEM_TOTAL_CHARGE>
0

> <PUBCHEM_HEAVY_ATOM_COUNT>
13

> <PUBCHEM_ATOM_DEF_STEREO_COUNT>
0

> <PUBCHEM_ATOM_UDEF_STEREO_COUNT>
0

> <PUBCHEM_BOND_DEF_STEREO_COUNT>
0

> <PUBCHEM_BOND_UDEF_STEREO_COUNT>
0

> <PUBCHEM_ISOTOPIC_ATOM_COUNT>
0

> <PUBCHEM_COMPONENT_COUNT>
1

> <PUBCHEM_CACTVS_TAUTO_COUNT>
-1

> <PUBCHEM_COORDINATE_TYPE>
1
5
255

> <PUBCHEM_BONDANNOTATIONS>
5  10  8
5  9  8
6  10  8
6  11  8
7  11  8
7  9  8

$$$$
