7874
  -OEChem-05122608452D

 70 70  0     0  0  0  0  0  0999 V2000
    4.4659   -1.2991    0.0000 Si  0  0  0  0  0  0  0  0  0  0  0  0
    2.9659   -2.1651    0.0000 Si  0  0  0  0  0  0  0  0  0  0  0  0
    5.9659   -0.4330    0.0000 Si  0  0  0  0  0  0  0  0  0  0  0  0
    2.9659   -0.4330    0.0000 Si  0  0  0  0  0  0  0  0  0  0  0  0
    5.9659    1.2990    0.0000 Si  0  0  0  0  0  0  0  0  0  0  0  0
    2.9659    1.2990    0.0000 Si  0  0  0  0  0  0  0  0  0  0  0  0
    4.4659    2.1651    0.0000 Si  0  0  0  0  0  0  0  0  0  0  0  0
    3.9659   -2.1651    0.0000 O   0  0  0  0  0  0  0  0  0  0  0  0
    5.4659   -1.2991    0.0000 O   0  0  0  0  0  0  0  0  0  0  0  0
    2.4659   -1.2991    0.0000 O   0  0  0  0  0  0  0  0  0  0  0  0
    5.4659    0.4330    0.0000 O   0  0  0  0  0  0  0  0  0  0  0  0
    2.4659    0.4330    0.0000 O   0  0  0  0  0  0  0  0  0  0  0  0
    5.4659    2.1651    0.0000 O   0  0  0  0  0  0  0  0  0  0  0  0
    3.9659    1.2990    0.0000 O   0  0  0  0  0  0  0  0  0  0  0  0
    4.7247   -0.3331    0.0000 C   0  0  0  0  0  0  0  0  0  0  0  0
    3.4697   -1.3862    0.0000 C   0  0  0  0  0  0  0  0  0  0  0  0
    2.2588   -2.8722    0.0000 C   0  0  0  0  0  0  0  0  0  0  0  0
    3.2248   -3.1310    0.0000 C   0  0  0  0  0  0  0  0  0  0  0  0
    6.6730   -1.1401    0.0000 C   0  0  0  0  0  0  0  0  0  0  0  0
    6.9319   -0.1742    0.0000 C   0  0  0  0  0  0  0  0  0  0  0  0
    3.6730    0.2741    0.0000 C   0  0  0  0  0  0  0  0  0  0  0  0
    3.9319   -0.6918    0.0000 C   0  0  0  0  0  0  0  0  0  0  0  0
    6.6730    2.0061    0.0000 C   0  0  0  0  0  0  0  0  0  0  0  0
    6.9319    1.0402    0.0000 C   0  0  0  0  0  0  0  0  0  0  0  0
    2.0000    1.5579    0.0000 C   0  0  0  0  0  0  0  0  0  0  0  0
    2.7071    2.2650    0.0000 C   0  0  0  0  0  0  0  0  0  0  0  0
    4.7247    3.1310    0.0000 C   0  0  0  0  0  0  0  0  0  0  0  0
    3.7588    2.8722    0.0000 C   0  0  0  0  0  0  0  0  0  0  0  0
    5.3236   -0.4936    0.0000 H   0  0  0  0  0  0  0  0  0  0  0  0
    4.8852    0.2658    0.0000 H   0  0  0  0  0  0  0  0  0  0  0  0
    4.1259   -0.1727    0.0000 H   0  0  0  0  0  0  0  0  0  0  0  0
    3.4157   -0.7686    0.0000 H   0  0  0  0  0  0  0  0  0  0  0  0
    2.8521   -1.4402    0.0000 H   0  0  0  0  0  0  0  0  0  0  0  0
    3.5238   -2.0038    0.0000 H   0  0  0  0  0  0  0  0  0  0  0  0
    1.8204   -2.4338    0.0000 H   0  0  0  0  0  0  0  0  0  0  0  0
    1.8204   -3.3106    0.0000 H   0  0  0  0  0  0  0  0  0  0  0  0
    2.6972   -3.3106    0.0000 H   0  0  0  0  0  0  0  0  0  0  0  0
    2.6260   -3.2915    0.0000 H   0  0  0  0  0  0  0  0  0  0  0  0
    3.3853   -3.7298    0.0000 H   0  0  0  0  0  0  0  0  0  0  0  0
    3.8237   -2.9705    0.0000 H   0  0  0  0  0  0  0  0  0  0  0  0
    6.2346   -1.5785    0.0000 H   0  0  0  0  0  0  0  0  0  0  0  0
    7.1114   -1.5785    0.0000 H   0  0  0  0  0  0  0  0  0  0  0  0
    7.1114   -0.7017    0.0000 H   0  0  0  0  0  0  0  0  0  0  0  0
    7.0923   -0.7731    0.0000 H   0  0  0  0  0  0  0  0  0  0  0  0
    7.5307   -0.0137    0.0000 H   0  0  0  0  0  0  0  0  0  0  0  0
    6.7714    0.4247    0.0000 H   0  0  0  0  0  0  0  0  0  0  0  0
    4.1114   -0.1643    0.0000 H   0  0  0  0  0  0  0  0  0  0  0  0
    4.1114    0.7125    0.0000 H   0  0  0  0  0  0  0  0  0  0  0  0
    3.2346    0.7125    0.0000 H   0  0  0  0  0  0  0  0  0  0  0  0
    3.7714   -1.2907    0.0000 H   0  0  0  0  0  0  0  0  0  0  0  0
    4.5307   -0.8523    0.0000 H   0  0  0  0  0  0  0  0  0  0  0  0
    4.0923   -0.0930    0.0000 H   0  0  0  0  0  0  0  0  0  0  0  0
    7.1114    1.5677    0.0000 H   0  0  0  0  0  0  0  0  0  0  0  0
    7.1114    2.4445    0.0000 H   0  0  0  0  0  0  0  0  0  0  0  0
    6.2346    2.4445    0.0000 H   0  0  0  0  0  0  0  0  0  0  0  0
    6.7714    0.4413    0.0000 H   0  0  0  0  0  0  0  0  0  0  0  0
    7.5307    0.8797    0.0000 H   0  0  0  0  0  0  0  0  0  0  0  0
    7.0923    1.6391    0.0000 H   0  0  0  0  0  0  0  0  0  0  0  0
    2.1605    2.1567    0.0000 H   0  0  0  0  0  0  0  0  0  0  0  0
    1.4011    1.7183    0.0000 H   0  0  0  0  0  0  0  0  0  0  0  0
    1.8395    0.9590    0.0000 H   0  0  0  0  0  0  0  0  0  0  0  0
    3.3060    2.4254    0.0000 H   0  0  0  0  0  0  0  0  0  0  0  0
    2.5466    2.8638    0.0000 H   0  0  0  0  0  0  0  0  0  0  0  0
    2.1082    2.1045    0.0000 H   0  0  0  0  0  0  0  0  0  0  0  0
    5.3236    2.9705    0.0000 H   0  0  0  0  0  0  0  0  0  0  0  0
    4.8852    3.7299    0.0000 H   0  0  0  0  0  0  0  0  0  0  0  0
    4.1259    3.2915    0.0000 H   0  0  0  0  0  0  0  0  0  0  0  0
    4.1972    3.3106    0.0000 H   0  0  0  0  0  0  0  0  0  0  0  0
    3.3204    3.3106    0.0000 H   0  0  0  0  0  0  0  0  0  0  0  0
    3.3204    2.4338    0.0000 H   0  0  0  0  0  0  0  0  0  0  0  0
  1  8  1  0  0  0  0
  1  9  1  0  0  0  0
  1 15  1  0  0  0  0
  1 16  1  0  0  0  0
  2  8  1  0  0  0  0
  2 10  1  0  0  0  0
  2 17  1  0  0  0  0
  2 18  1  0  0  0  0
  3  9  1  0  0  0  0
  3 11  1  0  0  0  0
  3 19  1  0  0  0  0
  3 20  1  0  0  0  0
  4 10  1  0  0  0  0
  4 12  1  0  0  0  0
  4 21  1  0  0  0  0
  4 22  1  0  0  0  0
  5 11  1  0  0  0  0
  5 13  1  0  0  0  0
  5 23  1  0  0  0  0
  5 24  1  0  0  0  0
  6 12  1  0  0  0  0
  6 14  1  0  0  0  0
  6 25  1  0  0  0  0
  6 26  1  0  0  0  0
  7 13  1  0  0  0  0
  7 14  1  0  0  0  0
  7 27  1  0  0  0  0
  7 28  1  0  0  0  0
 15 29  1  0  0  0  0
 15 30  1  0  0  0  0
 15 31  1  0  0  0  0
 16 32  1  0  0  0  0
 16 33  1  0  0  0  0
 16 34  1  0  0  0  0
 17 35  1  0  0  0  0
 17 36  1  0  0  0  0
 17 37  1  0  0  0  0
 18 38  1  0  0  0  0
 18 39  1  0  0  0  0
 18 40  1  0  0  0  0
 19 41  1  0  0  0  0
 19 42  1  0  0  0  0
 19 43  1  0  0  0  0
 20 44  1  0  0  0  0
 20 45  1  0  0  0  0
 20 46  1  0  0  0  0
 21 47  1  0  0  0  0
 21 48  1  0  0  0  0
 21 49  1  0  0  0  0
 22 50  1  0  0  0  0
 22 51  1  0  0  0  0
 22 52  1  0  0  0  0
 23 53  1  0  0  0  0
 23 54  1  0  0  0  0
 23 55  1  0  0  0  0
 24 56  1  0  0  0  0
 24 57  1  0  0  0  0
 24 58  1  0  0  0  0
 25 59  1  0  0  0  0
 25 60  1  0  0  0  0
 25 61  1  0  0  0  0
 26 62  1  0  0  0  0
 26 63  1  0  0  0  0
 26 64  1  0  0  0  0
 27 65  1  0  0  0  0
 27 66  1  0  0  0  0
 27 67  1  0  0  0  0
 28 68  1  0  0  0  0
 28 69  1  0  0  0  0
 28 70  1  0  0  0  0
M  END
> <PUBCHEM_COMPOUND_CID>
7874

> <PUBCHEM_COMPOUND_CANONICALIZED>
1

> <PUBCHEM_CACTVS_COMPLEXITY>
385

> <PUBCHEM_CACTVS_HBOND_ACCEPTOR>
7

> <PUBCHEM_CACTVS_HBOND_DONOR>
0

> <PUBCHEM_CACTVS_ROTATABLE_BOND>
0

> <PUBCHEM_CACTVS_SUBSKEYS>
AAADcfBwOAwAAAAAAAAAAAAAAAAAAAAAAAAAAAAAAAAAAAAAAAAAEBAAAEAAAAAAAABCAAAAAAEAAAAAAAAAAAAAAAAAAAAAAAAAAAAAAAAAAAAAAAAAAAAAAAAAAAAAAAAAAAAAAAAAAAAAAAAAAAAAAA==

> <PUBCHEM_IUPAC_OPENEYE_NAME>
2,2,4,4,6,6,8,8,10,10,12,12,14,14-tetradecamethyl-1,3,5,7,9,11,13-heptaoxa-2,4,6,8,10,12,14-heptasilacyclotetradecane

> <PUBCHEM_IUPAC_CAS_NAME>
2,2,4,4,6,6,8,8,10,10,12,12,14,14-tetradecamethyl-1,3,5,7,9,11,13-heptaoxa-2,4,6,8,10,12,14-heptasilacyclotetradecane

> <PUBCHEM_IUPAC_NAME_MARKUP>
2,2,4,4,6,6,8,8,10,10,12,12,14,14-tetradecamethyl-1,3,5,7,9,11,13-heptaoxa-2,4,6,8,10,12,14-heptasilacyclotetradecane

> <PUBCHEM_IUPAC_NAME>
2,2,4,4,6,6,8,8,10,10,12,12,14,14-tetradecamethyl-1,3,5,7,9,11,13-heptaoxa-2,4,6,8,10,12,14-heptasilacyclotetradecane

> <PUBCHEM_IUPAC_SYSTEMATIC_NAME>
2,2,4,4,6,6,8,8,10,10,12,12,14,14-tetradecamethyl-1,3,5,7,9,11,13-heptaoxa-2,4,6,8,10,12,14-heptasilacyclotetradecane

> <PUBCHEM_IUPAC_TRADITIONAL_NAME>
2,2,4,4,6,6,8,8,10,10,12,12,14,14-tetradecamethyl-1,3,5,7,9,11,13-heptaoxa-2,4,6,8,10,12,14-heptasilacyclotetradecane

> <PUBCHEM_IUPAC_INCHI>
InChI=1S/C14H42O7Si7/c1-22(2)15-23(3,4)17-25(7,8)19-27(11,12)21-28(13,14)20-26(9,10)18-24(5,6)16-22/h1-14H3

> <PUBCHEM_IUPAC_INCHIKEY>
GSANOGQCVHBHIF-UHFFFAOYSA-N

> <PUBCHEM_EXACT_MASS>
518.13153942

> <PUBCHEM_MOLECULAR_FORMULA>
C14H42O7Si7

> <PUBCHEM_MOLECULAR_WEIGHT>
519.07

> <PUBCHEM_SMILES>
C[Si]1(O[Si](O[Si](O[Si](O[Si](O[Si](O[Si](O1)(C)C)(C)C)(C)C)(C)C)(C)C)(C)C)C

> <PUBCHEM_CONNECTIVITY_SMILES>
C[Si]1(O[Si](O[Si](O[Si](O[Si](O[Si](O[Si](O1)(C)C)(C)C)(C)C)(C)C)(C)C)(C)C)C

> <PUBCHEM_CACTVS_TPSA>
64.6

> <PUBCHEM_MONOISOTOPIC_WEIGHT>
518.13153942

> <PUBCHEM_TOTAL_CHARGE>
0

> <PUBCHEM_HEAVY_ATOM_COUNT>
28

> <PUBCHEM_ATOM_DEF_STEREO_COUNT>
0

> <PUBCHEM_ATOM_UDEF_STEREO_COUNT>
0

> <PUBCHEM_BOND_DEF_STEREO_COUNT>
0

> <PUBCHEM_BOND_UDEF_STEREO_COUNT>
0

> <PUBCHEM_ISOTOPIC_ATOM_COUNT>
0

> <PUBCHEM_COMPONENT_COUNT>
1

> <PUBCHEM_CACTVS_TAUTO_COUNT>
-1

> <PUBCHEM_COORDINATE_TYPE>
1
5
255

$$$$
