79075
  -OEChem-05122608262D

 67 66  0     0  0  0  0  0  0999 V2000
    5.1350    1.3100    0.0000 O   0  0  0  0  0  0  0  0  0  0  0  0
    6.0010   -0.1900    0.0000 O   0  0  0  0  0  0  0  0  0  0  0  0
    2.5369    0.8100    0.0000 O   0  0  0  0  0  0  0  0  0  0  0  0
    3.4030   -0.6900    0.0000 O   0  0  0  0  0  0  0  0  0  0  0  0
   12.9292    0.8100    0.0000 C   0  0  0  0  0  0  0  0  0  0  0  0
   13.7953    1.3100    0.0000 C   0  0  0  0  0  0  0  0  0  0  0  0
   12.0632    1.3100    0.0000 C   0  0  0  0  0  0  0  0  0  0  0  0
   14.6613    0.8100    0.0000 C   0  0  0  0  0  0  0  0  0  0  0  0
   11.1972    0.8100    0.0000 C   0  0  0  0  0  0  0  0  0  0  0  0
   15.5273    1.3100    0.0000 C   0  0  0  0  0  0  0  0  0  0  0  0
   10.3312    1.3100    0.0000 C   0  0  0  0  0  0  0  0  0  0  0  0
   16.3933    0.8100    0.0000 C   0  0  0  0  0  0  0  0  0  0  0  0
    9.4651    0.8100    0.0000 C   0  0  0  0  0  0  0  0  0  0  0  0
   17.2594    1.3100    0.0000 C   0  0  0  0  0  0  0  0  0  0  0  0
    8.5991    1.3100    0.0000 C   0  0  0  0  0  0  0  0  0  0  0  0
   18.1254    0.8100    0.0000 C   0  0  0  0  0  0  0  0  0  0  0  0
   18.9914    1.3100    0.0000 C   0  0  0  0  0  0  0  0  0  0  0  0
    7.7331    0.8100    0.0000 C   0  0  0  0  0  0  0  0  0  0  0  0
   19.8574    0.8100    0.0000 C   0  0  0  0  0  0  0  0  0  0  0  0
    6.8671    1.3100    0.0000 C   0  0  0  0  0  0  0  0  0  0  0  0
   20.7235    1.3100    0.0000 C   0  0  0  0  0  0  0  0  0  0  0  0
    6.0010    0.8100    0.0000 C   0  0  0  0  0  0  0  0  0  0  0  0
    4.2690    0.8100    0.0000 C   0  0  0  0  0  0  0  0  0  0  0  0
    3.4030    1.3100    0.0000 C   0  0  0  0  0  0  0  0  0  0  0  0
    4.2690   -0.1900    0.0000 C   0  0  0  0  0  0  0  0  0  0  0  0
   12.5307    0.3351    0.0000 H   0  0  0  0  0  0  0  0  0  0  0  0
   13.3278    0.3351    0.0000 H   0  0  0  0  0  0  0  0  0  0  0  0
   14.1938    1.7850    0.0000 H   0  0  0  0  0  0  0  0  0  0  0  0
   13.3967    1.7850    0.0000 H   0  0  0  0  0  0  0  0  0  0  0  0
   12.4617    1.7850    0.0000 H   0  0  0  0  0  0  0  0  0  0  0  0
   11.6647    1.7850    0.0000 H   0  0  0  0  0  0  0  0  0  0  0  0
   14.2628    0.3351    0.0000 H   0  0  0  0  0  0  0  0  0  0  0  0
   15.0598    0.3351    0.0000 H   0  0  0  0  0  0  0  0  0  0  0  0
   10.7987    0.3351    0.0000 H   0  0  0  0  0  0  0  0  0  0  0  0
   11.5957    0.3351    0.0000 H   0  0  0  0  0  0  0  0  0  0  0  0
   15.9258    1.7850    0.0000 H   0  0  0  0  0  0  0  0  0  0  0  0
   15.1288    1.7850    0.0000 H   0  0  0  0  0  0  0  0  0  0  0  0
   10.7297    1.7850    0.0000 H   0  0  0  0  0  0  0  0  0  0  0  0
    9.9326    1.7850    0.0000 H   0  0  0  0  0  0  0  0  0  0  0  0
   15.9948    0.3351    0.0000 H   0  0  0  0  0  0  0  0  0  0  0  0
   16.7919    0.3351    0.0000 H   0  0  0  0  0  0  0  0  0  0  0  0
    9.0666    0.3351    0.0000 H   0  0  0  0  0  0  0  0  0  0  0  0
    9.8637    0.3351    0.0000 H   0  0  0  0  0  0  0  0  0  0  0  0
   17.6579    1.7850    0.0000 H   0  0  0  0  0  0  0  0  0  0  0  0
   16.8608    1.7850    0.0000 H   0  0  0  0  0  0  0  0  0  0  0  0
    8.9976    1.7850    0.0000 H   0  0  0  0  0  0  0  0  0  0  0  0
    8.2006    1.7850    0.0000 H   0  0  0  0  0  0  0  0  0  0  0  0
   17.7269    0.3351    0.0000 H   0  0  0  0  0  0  0  0  0  0  0  0
   18.5239    0.3351    0.0000 H   0  0  0  0  0  0  0  0  0  0  0  0
   19.3899    1.7850    0.0000 H   0  0  0  0  0  0  0  0  0  0  0  0
   18.5929    1.7850    0.0000 H   0  0  0  0  0  0  0  0  0  0  0  0
    7.3346    0.3351    0.0000 H   0  0  0  0  0  0  0  0  0  0  0  0
    8.1316    0.3351    0.0000 H   0  0  0  0  0  0  0  0  0  0  0  0
   19.4589    0.3351    0.0000 H   0  0  0  0  0  0  0  0  0  0  0  0
   20.2560    0.3351    0.0000 H   0  0  0  0  0  0  0  0  0  0  0  0
    7.2656    1.7850    0.0000 H   0  0  0  0  0  0  0  0  0  0  0  0
    6.4685    1.7850    0.0000 H   0  0  0  0  0  0  0  0  0  0  0  0
   21.0335    0.7731    0.0000 H   0  0  0  0  0  0  0  0  0  0  0  0
   21.2604    1.6200    0.0000 H   0  0  0  0  0  0  0  0  0  0  0  0
   20.4135    1.8469    0.0000 H   0  0  0  0  0  0  0  0  0  0  0  0
    4.2690    1.4300    0.0000 H   0  0  0  0  0  0  0  0  0  0  0  0
    3.8015    1.7850    0.0000 H   0  0  0  0  0  0  0  0  0  0  0  0
    3.0044    1.7850    0.0000 H   0  0  0  0  0  0  0  0  0  0  0  0
    4.4810   -0.7726    0.0000 H   0  0  0  0  0  0  0  0  0  0  0  0
    4.8796   -0.0823    0.0000 H   0  0  0  0  0  0  0  0  0  0  0  0
    2.0000    1.1200    0.0000 H   0  0  0  0  0  0  0  0  0  0  0  0
    3.4030   -1.3100    0.0000 H   0  0  0  0  0  0  0  0  0  0  0  0
  1 22  1  0  0  0  0
  1 23  1  0  0  0  0
  2 22  2  0  0  0  0
  3 24  1  0  0  0  0
  3 66  1  0  0  0  0
  4 25  1  0  0  0  0
  4 67  1  0  0  0  0
  5  6  1  0  0  0  0
  5  7  1  0  0  0  0
  5 26  1  0  0  0  0
  5 27  1  0  0  0  0
  6  8  1  0  0  0  0
  6 28  1  0  0  0  0
  6 29  1  0  0  0  0
  7  9  1  0  0  0  0
  7 30  1  0  0  0  0
  7 31  1  0  0  0  0
  8 10  1  0  0  0  0
  8 32  1  0  0  0  0
  8 33  1  0  0  0  0
  9 11  1  0  0  0  0
  9 34  1  0  0  0  0
  9 35  1  0  0  0  0
 10 12  1  0  0  0  0
 10 36  1  0  0  0  0
 10 37  1  0  0  0  0
 11 13  1  0  0  0  0
 11 38  1  0  0  0  0
 11 39  1  0  0  0  0
 12 14  1  0  0  0  0
 12 40  1  0  0  0  0
 12 41  1  0  0  0  0
 13 15  1  0  0  0  0
 13 42  1  0  0  0  0
 13 43  1  0  0  0  0
 14 16  1  0  0  0  0
 14 44  1  0  0  0  0
 14 45  1  0  0  0  0
 15 18  1  0  0  0  0
 15 46  1  0  0  0  0
 15 47  1  0  0  0  0
 16 17  1  0  0  0  0
 16 48  1  0  0  0  0
 16 49  1  0  0  0  0
 17 19  1  0  0  0  0
 17 50  1  0  0  0  0
 17 51  1  0  0  0  0
 18 20  1  0  0  0  0
 18 52  1  0  0  0  0
 18 53  1  0  0  0  0
 19 21  1  0  0  0  0
 19 54  1  0  0  0  0
 19 55  1  0  0  0  0
 20 22  1  0  0  0  0
 20 56  1  0  0  0  0
 20 57  1  0  0  0  0
 21 58  1  0  0  0  0
 21 59  1  0  0  0  0
 21 60  1  0  0  0  0
 23 24  1  0  0  0  0
 23 25  1  0  0  0  0
 23 61  1  0  0  0  0
 24 62  1  0  0  0  0
 24 63  1  0  0  0  0
 25 64  1  0  0  0  0
 25 65  1  0  0  0  0
M  END
> <PUBCHEM_COMPOUND_CID>
79075

> <PUBCHEM_COMPOUND_CANONICALIZED>
1

> <PUBCHEM_CACTVS_COMPLEXITY>
277

> <PUBCHEM_CACTVS_HBOND_ACCEPTOR>
4

> <PUBCHEM_CACTVS_HBOND_DONOR>
2

> <PUBCHEM_CACTVS_ROTATABLE_BOND>
20

> <PUBCHEM_CACTVS_SUBSKEYS>
AAADcfB4OAAAAAAAAAAAAAAAAAAAAAAAAAAAAAAAAAAAAAAAAAAAGgAACAAACBSggAICCAAABgAIAACQCAAAAAAAAAAAAAEAAAABEBIAAAACQAAFAAADAAGIyKCAAAAAAAAAAAAAAAAAAAAAAAAAAAAAAA==

> <PUBCHEM_IUPAC_OPENEYE_NAME>
[2-hydroxy-1-(hydroxymethyl)ethyl] octadecanoate

> <PUBCHEM_IUPAC_CAS_NAME>
octadecanoic acid 1,3-dihydroxypropan-2-yl ester

> <PUBCHEM_IUPAC_NAME_MARKUP>
1,3-dihydroxypropan-2-yl octadecanoate

> <PUBCHEM_IUPAC_NAME>
1,3-dihydroxypropan-2-yl octadecanoate

> <PUBCHEM_IUPAC_SYSTEMATIC_NAME>
1,3-bis(oxidanyl)propan-2-yl octadecanoate

> <PUBCHEM_IUPAC_TRADITIONAL_NAME>
stearic acid (2-hydroxy-1-methylol-ethyl) ester

> <PUBCHEM_IUPAC_INCHI>
InChI=1S/C21H42O4/c1-2-3-4-5-6-7-8-9-10-11-12-13-14-15-16-17-21(24)25-20(18-22)19-23/h20,22-23H,2-19H2,1H3

> <PUBCHEM_IUPAC_INCHIKEY>
YQEMORVAKMFKLG-UHFFFAOYSA-N

> <PUBCHEM_XLOGP3_AA>
7.2

> <PUBCHEM_EXACT_MASS>
358.30830982

> <PUBCHEM_MOLECULAR_FORMULA>
C21H42O4

> <PUBCHEM_MOLECULAR_WEIGHT>
358.6

> <PUBCHEM_SMILES>
CCCCCCCCCCCCCCCCCC(=O)OC(CO)CO

> <PUBCHEM_CONNECTIVITY_SMILES>
CCCCCCCCCCCCCCCCCC(=O)OC(CO)CO

> <PUBCHEM_CACTVS_TPSA>
66.8

> <PUBCHEM_MONOISOTOPIC_WEIGHT>
358.30830982

> <PUBCHEM_TOTAL_CHARGE>
0

> <PUBCHEM_HEAVY_ATOM_COUNT>
25

> <PUBCHEM_ATOM_DEF_STEREO_COUNT>
0

> <PUBCHEM_ATOM_UDEF_STEREO_COUNT>
0

> <PUBCHEM_BOND_DEF_STEREO_COUNT>
0

> <PUBCHEM_BOND_UDEF_STEREO_COUNT>
0

> <PUBCHEM_ISOTOPIC_ATOM_COUNT>
0

> <PUBCHEM_COMPONENT_COUNT>
1

> <PUBCHEM_CACTVS_TAUTO_COUNT>
-1

> <PUBCHEM_COORDINATE_TYPE>
1
5
255

$$$$
