79336
  -OEChem-05122608412D

 26 26  0     0  0  0  0  0  0999 V2000
    2.8660    0.5950    0.0000 O   0  0  0  0  0  0  0  0  0  0  0  0
    7.1962   -1.9050    0.0000 O   0  0  0  0  0  0  0  0  0  0  0  0
    3.7321    2.0950    0.0000 O   0  0  0  0  0  0  0  0  0  0  0  0
    8.0622   -0.4050    0.0000 O   0  0  0  0  0  0  0  0  0  0  0  0
    5.4641    2.0950    0.0000 N   0  0  0  0  0  0  0  0  0  0  0  0
    4.5981    0.5950    0.0000 C   0  0  0  0  0  0  0  0  0  0  0  0
    5.4641    1.0950    0.0000 C   0  0  0  0  0  0  0  0  0  0  0  0
    6.3301   -0.4050    0.0000 C   0  0  0  0  0  0  0  0  0  0  0  0
    6.3301    0.5950    0.0000 C   0  0  0  0  0  0  0  0  0  0  0  0
    4.5981   -0.4050    0.0000 C   0  0  0  0  0  0  0  0  0  0  0  0
    5.4641   -0.9050    0.0000 C   0  0  0  0  0  0  0  0  0  0  0  0
    3.7321    1.0950    0.0000 C   0  0  0  0  0  0  0  0  0  0  0  0
    7.1962   -0.9050    0.0000 C   0  0  0  0  0  0  0  0  0  0  0  0
    2.0000    1.0950    0.0000 C   0  0  0  0  0  0  0  0  0  0  0  0
    8.0622   -2.4050    0.0000 C   0  0  0  0  0  0  0  0  0  0  0  0
    6.8671    0.9050    0.0000 H   0  0  0  0  0  0  0  0  0  0  0  0
    4.0611   -0.7150    0.0000 H   0  0  0  0  0  0  0  0  0  0  0  0
    5.4641   -1.5250    0.0000 H   0  0  0  0  0  0  0  0  0  0  0  0
    6.0010    2.4050    0.0000 H   0  0  0  0  0  0  0  0  0  0  0  0
    4.9272    2.4050    0.0000 H   0  0  0  0  0  0  0  0  0  0  0  0
    2.3100    1.6319    0.0000 H   0  0  0  0  0  0  0  0  0  0  0  0
    1.4631    1.4050    0.0000 H   0  0  0  0  0  0  0  0  0  0  0  0
    1.6900    0.5581    0.0000 H   0  0  0  0  0  0  0  0  0  0  0  0
    7.7522   -2.9419    0.0000 H   0  0  0  0  0  0  0  0  0  0  0  0
    8.5991   -2.7150    0.0000 H   0  0  0  0  0  0  0  0  0  0  0  0
    8.3722   -1.8681    0.0000 H   0  0  0  0  0  0  0  0  0  0  0  0
  1 12  1  0  0  0  0
  1 14  1  0  0  0  0
  2 13  1  0  0  0  0
  2 15  1  0  0  0  0
  3 12  2  0  0  0  0
  4 13  2  0  0  0  0
  5  7  1  0  0  0  0
  5 19  1  0  0  0  0
  5 20  1  0  0  0  0
  6  7  2  0  0  0  0
  6 10  1  0  0  0  0
  6 12  1  0  0  0  0
  7  9  1  0  0  0  0
  8  9  2  0  0  0  0
  8 11  1  0  0  0  0
  8 13  1  0  0  0  0
  9 16  1  0  0  0  0
 10 11  2  0  0  0  0
 10 17  1  0  0  0  0
 11 18  1  0  0  0  0
 14 21  1  0  0  0  0
 14 22  1  0  0  0  0
 14 23  1  0  0  0  0
 15 24  1  0  0  0  0
 15 25  1  0  0  0  0
 15 26  1  0  0  0  0
M  END
> <PUBCHEM_COMPOUND_CID>
79336

> <PUBCHEM_COMPOUND_CANONICALIZED>
1

> <PUBCHEM_CACTVS_COMPLEXITY>
254

> <PUBCHEM_CACTVS_HBOND_ACCEPTOR>
5

> <PUBCHEM_CACTVS_HBOND_DONOR>
1

> <PUBCHEM_CACTVS_ROTATABLE_BOND>
4

> <PUBCHEM_CACTVS_SUBSKEYS>
AAADccByOAAAAAAAAAAAAAAAAAAAAAAAAAAwAAAAAAAAAAABAAAAHgAQAAAADAiBmAIyyIBABACIAiTSSACCAAAkAgAIiAEAbMgIJjqAtZmAMYBm0AEI6ce8yDCOQAAAQAACAACAAACAAAQAAAAAAAAAAA==

> <PUBCHEM_IUPAC_OPENEYE_NAME>
dimethyl 2-aminobenzene-1,4-dicarboxylate

> <PUBCHEM_IUPAC_CAS_NAME>
2-aminobenzene-1,4-dicarboxylic acid dimethyl ester

> <PUBCHEM_IUPAC_NAME_MARKUP>
dimethyl 2-aminobenzene-1,4-dicarboxylate

> <PUBCHEM_IUPAC_NAME>
dimethyl 2-aminobenzene-1,4-dicarboxylate

> <PUBCHEM_IUPAC_SYSTEMATIC_NAME>
dimethyl 2-azanylbenzene-1,4-dicarboxylate

> <PUBCHEM_IUPAC_TRADITIONAL_NAME>
2-aminobenzene-1,4-dicarboxylic acid dimethyl ester

> <PUBCHEM_IUPAC_INCHI>
InChI=1S/C10H11NO4/c1-14-9(12)6-3-4-7(8(11)5-6)10(13)15-2/h3-5H,11H2,1-2H3

> <PUBCHEM_IUPAC_INCHIKEY>
DSSKDXUDARIMTR-UHFFFAOYSA-N

> <PUBCHEM_XLOGP3>
2.5

> <PUBCHEM_EXACT_MASS>
209.06880783

> <PUBCHEM_MOLECULAR_FORMULA>
C10H11NO4

> <PUBCHEM_MOLECULAR_WEIGHT>
209.20

> <PUBCHEM_SMILES>
COC(=O)C1=CC(=C(C=C1)C(=O)OC)N

> <PUBCHEM_CONNECTIVITY_SMILES>
COC(=O)C1=CC(=C(C=C1)C(=O)OC)N

> <PUBCHEM_CACTVS_TPSA>
78.6

> <PUBCHEM_MONOISOTOPIC_WEIGHT>
209.06880783

> <PUBCHEM_TOTAL_CHARGE>
0

> <PUBCHEM_HEAVY_ATOM_COUNT>
15

> <PUBCHEM_ATOM_DEF_STEREO_COUNT>
0

> <PUBCHEM_ATOM_UDEF_STEREO_COUNT>
0

> <PUBCHEM_BOND_DEF_STEREO_COUNT>
0

> <PUBCHEM_BOND_UDEF_STEREO_COUNT>
0

> <PUBCHEM_ISOTOPIC_ATOM_COUNT>
0

> <PUBCHEM_COMPONENT_COUNT>
1

> <PUBCHEM_CACTVS_TAUTO_COUNT>
-1

> <PUBCHEM_COORDINATE_TYPE>
1
5
255

> <PUBCHEM_BONDANNOTATIONS>
10  11  8
6  10  8
6  7  8
7  9  8
8  11  8
8  9  8

$$$$
