79381
  -OEChem-05122609402D

 27 28  0     0  0  0  0  0  0999 V2000
    4.2690   -0.6550    0.0000 S   0  0  0  0  0  0  0  0  0  0  0  0
    5.2690   -0.6550    0.0000 O   0  0  0  0  0  0  0  0  0  0  0  0
    3.2690   -0.6550    0.0000 O   0  0  0  0  0  0  0  0  0  0  0  0
    2.5369   -1.6550    0.0000 O   0  0  0  0  0  0  0  0  0  0  0  0
    4.2690    3.3450    0.0000 O   0  0  0  0  0  0  0  0  0  0  0  0
    4.2690   -1.6550    0.0000 C   0  0  0  0  0  0  0  0  0  0  0  0
    4.2690    0.3450    0.0000 C   0  0  0  0  0  0  0  0  0  0  0  0
    3.4030   -2.1550    0.0000 C   0  0  0  0  0  0  0  0  0  0  0  0
    5.1350   -2.1550    0.0000 C   0  0  0  0  0  0  0  0  0  0  0  0
    3.4030    0.8450    0.0000 C   0  0  0  0  0  0  0  0  0  0  0  0
    5.1350    0.8450    0.0000 C   0  0  0  0  0  0  0  0  0  0  0  0
    3.4030   -3.1550    0.0000 C   0  0  0  0  0  0  0  0  0  0  0  0
    3.4030    1.8450    0.0000 C   0  0  0  0  0  0  0  0  0  0  0  0
    5.1350    1.8450    0.0000 C   0  0  0  0  0  0  0  0  0  0  0  0
    5.1350   -3.1550    0.0000 C   0  0  0  0  0  0  0  0  0  0  0  0
    4.2690    2.3450    0.0000 C   0  0  0  0  0  0  0  0  0  0  0  0
    4.2690   -3.6550    0.0000 C   0  0  0  0  0  0  0  0  0  0  0  0
    2.8660    0.5350    0.0000 H   0  0  0  0  0  0  0  0  0  0  0  0
    5.6720    0.5350    0.0000 H   0  0  0  0  0  0  0  0  0  0  0  0
    5.6720   -1.8450    0.0000 H   0  0  0  0  0  0  0  0  0  0  0  0
    2.8660   -3.4650    0.0000 H   0  0  0  0  0  0  0  0  0  0  0  0
    2.8660    2.1550    0.0000 H   0  0  0  0  0  0  0  0  0  0  0  0
    5.6720    2.1550    0.0000 H   0  0  0  0  0  0  0  0  0  0  0  0
    5.6720   -3.4650    0.0000 H   0  0  0  0  0  0  0  0  0  0  0  0
    4.2690   -4.2750    0.0000 H   0  0  0  0  0  0  0  0  0  0  0  0
    2.0000   -1.9650    0.0000 H   0  0  0  0  0  0  0  0  0  0  0  0
    4.8059    3.6550    0.0000 H   0  0  0  0  0  0  0  0  0  0  0  0
  1  2  2  0  0  0  0
  1  3  2  0  0  0  0
  1  6  1  0  0  0  0
  1  7  1  0  0  0  0
  4  8  1  0  0  0  0
  4 26  1  0  0  0  0
  5 16  1  0  0  0  0
  5 27  1  0  0  0  0
  6  8  1  0  0  0  0
  6  9  2  0  0  0  0
  7 10  2  0  0  0  0
  7 11  1  0  0  0  0
  8 12  2  0  0  0  0
  9 15  1  0  0  0  0
  9 20  1  0  0  0  0
 10 13  1  0  0  0  0
 10 18  1  0  0  0  0
 11 14  2  0  0  0  0
 11 19  1  0  0  0  0
 12 17  1  0  0  0  0
 12 21  1  0  0  0  0
 13 16  2  0  0  0  0
 13 22  1  0  0  0  0
 14 16  1  0  0  0  0
 14 23  1  0  0  0  0
 15 17  2  0  0  0  0
 15 24  1  0  0  0  0
 17 25  1  0  0  0  0
M  END
> <PUBCHEM_COMPOUND_CID>
79381

> <PUBCHEM_COMPOUND_CANONICALIZED>
1

> <PUBCHEM_CACTVS_COMPLEXITY>
338

> <PUBCHEM_CACTVS_HBOND_ACCEPTOR>
4

> <PUBCHEM_CACTVS_HBOND_DONOR>
2

> <PUBCHEM_CACTVS_ROTATABLE_BOND>
2

> <PUBCHEM_CACTVS_SUBSKEYS>
AAADccBwOABAAAAAAAAAAAAAAAAAAAAAAAAwYAAAAAAAAAABQAAAGgQACAAACASA0AAwB4AAAgqAACBCAHBCAAAgKBAIiBoGCIgIJiKiERKAcAAkwBEomAeAQAAAAIAAAAAAIAABAAAAAABAAAAAAAAAAA==

> <PUBCHEM_IUPAC_OPENEYE_NAME>
2-(4-hydroxyphenyl)sulfonylphenol

> <PUBCHEM_IUPAC_CAS_NAME>
2-(4-hydroxyphenyl)sulfonylphenol

> <PUBCHEM_IUPAC_NAME_MARKUP>
2-(4-hydroxyphenyl)sulfonylphenol

> <PUBCHEM_IUPAC_NAME>
2-(4-hydroxyphenyl)sulfonylphenol

> <PUBCHEM_IUPAC_SYSTEMATIC_NAME>
2-(4-hydroxyphenyl)sulfonylphenol

> <PUBCHEM_IUPAC_TRADITIONAL_NAME>
2-(4-hydroxyphenyl)sulfonylphenol

> <PUBCHEM_IUPAC_INCHI>
InChI=1S/C12H10O4S/c13-9-5-7-10(8-6-9)17(15,16)12-4-2-1-3-11(12)14/h1-8,13-14H

> <PUBCHEM_IUPAC_INCHIKEY>
LROZSPADHSXFJA-UHFFFAOYSA-N

> <PUBCHEM_XLOGP3>
2

> <PUBCHEM_EXACT_MASS>
250.02997997

> <PUBCHEM_MOLECULAR_FORMULA>
C12H10O4S

> <PUBCHEM_MOLECULAR_WEIGHT>
250.27

> <PUBCHEM_SMILES>
C1=CC=C(C(=C1)O)S(=O)(=O)C2=CC=C(C=C2)O

> <PUBCHEM_CONNECTIVITY_SMILES>
C1=CC=C(C(=C1)O)S(=O)(=O)C2=CC=C(C=C2)O

> <PUBCHEM_CACTVS_TPSA>
83

> <PUBCHEM_MONOISOTOPIC_WEIGHT>
250.02997997

> <PUBCHEM_TOTAL_CHARGE>
0

> <PUBCHEM_HEAVY_ATOM_COUNT>
17

> <PUBCHEM_ATOM_DEF_STEREO_COUNT>
0

> <PUBCHEM_ATOM_UDEF_STEREO_COUNT>
0

> <PUBCHEM_BOND_DEF_STEREO_COUNT>
0

> <PUBCHEM_BOND_UDEF_STEREO_COUNT>
0

> <PUBCHEM_ISOTOPIC_ATOM_COUNT>
0

> <PUBCHEM_COMPONENT_COUNT>
1

> <PUBCHEM_CACTVS_TAUTO_COUNT>
-1

> <PUBCHEM_COORDINATE_TYPE>
1
5
255

> <PUBCHEM_BONDANNOTATIONS>
10  13  8
11  14  8
12  17  8
13  16  8
14  16  8
15  17  8
6  8  8
6  9  8
7  10  8
7  11  8
8  12  8
9  15  8

$$$$
