79983
  -OEChem-05122609402D

 37 37  0     0  0  0  0  0  0999 V2000
    2.5369    1.0000    0.0000 O   0  0  0  0  0  0  0  0  0  0  0  0
    4.2690    2.0000    0.0000 C   0  0  0  0  0  0  0  0  0  0  0  0
    4.2690   -2.0000    0.0000 C   0  0  0  0  0  0  0  0  0  0  0  0
    4.2690    1.0000    0.0000 C   0  0  0  0  0  0  0  0  0  0  0  0
    4.2690   -1.0000    0.0000 C   0  0  0  0  0  0  0  0  0  0  0  0
    3.4030    0.5000    0.0000 C   0  0  0  0  0  0  0  0  0  0  0  0
    4.2690    3.0000    0.0000 C   0  0  0  0  0  0  0  0  0  0  0  0
    5.2690    2.0000    0.0000 C   0  0  0  0  0  0  0  0  0  0  0  0
    3.2690    2.0000    0.0000 C   0  0  0  0  0  0  0  0  0  0  0  0
    3.4030   -0.5000    0.0000 C   0  0  0  0  0  0  0  0  0  0  0  0
    5.1350    0.5000    0.0000 C   0  0  0  0  0  0  0  0  0  0  0  0
    5.1350   -0.5000    0.0000 C   0  0  0  0  0  0  0  0  0  0  0  0
    4.2690   -3.0000    0.0000 C   0  0  0  0  0  0  0  0  0  0  0  0
    5.2690   -2.0000    0.0000 C   0  0  0  0  0  0  0  0  0  0  0  0
    3.2690   -2.0000    0.0000 C   0  0  0  0  0  0  0  0  0  0  0  0
    4.8890    3.0000    0.0000 H   0  0  0  0  0  0  0  0  0  0  0  0
    4.2690    3.6200    0.0000 H   0  0  0  0  0  0  0  0  0  0  0  0
    3.6490    3.0000    0.0000 H   0  0  0  0  0  0  0  0  0  0  0  0
    5.2690    1.3800    0.0000 H   0  0  0  0  0  0  0  0  0  0  0  0
    5.8890    2.0000    0.0000 H   0  0  0  0  0  0  0  0  0  0  0  0
    5.2690    2.6200    0.0000 H   0  0  0  0  0  0  0  0  0  0  0  0
    3.2690    2.6200    0.0000 H   0  0  0  0  0  0  0  0  0  0  0  0
    2.6490    2.0000    0.0000 H   0  0  0  0  0  0  0  0  0  0  0  0
    3.2690    1.3800    0.0000 H   0  0  0  0  0  0  0  0  0  0  0  0
    2.8660   -0.8100    0.0000 H   0  0  0  0  0  0  0  0  0  0  0  0
    5.6720    0.8100    0.0000 H   0  0  0  0  0  0  0  0  0  0  0  0
    5.6720   -0.8100    0.0000 H   0  0  0  0  0  0  0  0  0  0  0  0
    3.6490   -3.0000    0.0000 H   0  0  0  0  0  0  0  0  0  0  0  0
    4.2690   -3.6200    0.0000 H   0  0  0  0  0  0  0  0  0  0  0  0
    4.8890   -3.0000    0.0000 H   0  0  0  0  0  0  0  0  0  0  0  0
    5.2690   -2.6200    0.0000 H   0  0  0  0  0  0  0  0  0  0  0  0
    5.8890   -2.0000    0.0000 H   0  0  0  0  0  0  0  0  0  0  0  0
    5.2690   -1.3800    0.0000 H   0  0  0  0  0  0  0  0  0  0  0  0
    3.2690   -1.3800    0.0000 H   0  0  0  0  0  0  0  0  0  0  0  0
    2.6490   -2.0000    0.0000 H   0  0  0  0  0  0  0  0  0  0  0  0
    3.2690   -2.6200    0.0000 H   0  0  0  0  0  0  0  0  0  0  0  0
    2.0000    0.6900    0.0000 H   0  0  0  0  0  0  0  0  0  0  0  0
  1  6  1  0  0  0  0
  1 37  1  0  0  0  0
  2  4  1  0  0  0  0
  2  7  1  0  0  0  0
  2  8  1  0  0  0  0
  2  9  1  0  0  0  0
  3  5  1  0  0  0  0
  3 13  1  0  0  0  0
  3 14  1  0  0  0  0
  3 15  1  0  0  0  0
  4  6  2  0  0  0  0
  4 11  1  0  0  0  0
  5 10  2  0  0  0  0
  5 12  1  0  0  0  0
  6 10  1  0  0  0  0
  7 16  1  0  0  0  0
  7 17  1  0  0  0  0
  7 18  1  0  0  0  0
  8 19  1  0  0  0  0
  8 20  1  0  0  0  0
  8 21  1  0  0  0  0
  9 22  1  0  0  0  0
  9 23  1  0  0  0  0
  9 24  1  0  0  0  0
 10 25  1  0  0  0  0
 11 12  2  0  0  0  0
 11 26  1  0  0  0  0
 12 27  1  0  0  0  0
 13 28  1  0  0  0  0
 13 29  1  0  0  0  0
 13 30  1  0  0  0  0
 14 31  1  0  0  0  0
 14 32  1  0  0  0  0
 14 33  1  0  0  0  0
 15 34  1  0  0  0  0
 15 35  1  0  0  0  0
 15 36  1  0  0  0  0
M  END
> <PUBCHEM_COMPOUND_CID>
79983

> <PUBCHEM_COMPOUND_CANONICALIZED>
1

> <PUBCHEM_CACTVS_COMPLEXITY>
206

> <PUBCHEM_CACTVS_HBOND_ACCEPTOR>
1

> <PUBCHEM_CACTVS_HBOND_DONOR>
1

> <PUBCHEM_CACTVS_ROTATABLE_BOND>
2

> <PUBCHEM_CACTVS_SUBSKEYS>
AAADceBwIAAAAAAAAAAAAAAAAAAAAAAAAAAwAAAAAAAAAAABAAAAGgAACAAADgSAmAAyBoAAAgCAAiBCAAACAAAgIAAIiAAGCIgIJiKCERKAcAAkwBEImAeAwPAPwAABAAAIAACAAAIAABAAAAAAAAAAAA==

> <PUBCHEM_IUPAC_OPENEYE_NAME>
2,5-ditert-butylphenol

> <PUBCHEM_IUPAC_CAS_NAME>
2,5-ditert-butylphenol

> <PUBCHEM_IUPAC_NAME_MARKUP>
2,5-di<I>tert</I>-butylphenol

> <PUBCHEM_IUPAC_NAME>
2,5-ditert-butylphenol

> <PUBCHEM_IUPAC_SYSTEMATIC_NAME>
2,5-ditert-butylphenol

> <PUBCHEM_IUPAC_TRADITIONAL_NAME>
2,5-ditert-butylphenol

> <PUBCHEM_IUPAC_INCHI>
InChI=1S/C14H22O/c1-13(2,3)10-7-8-11(12(15)9-10)14(4,5)6/h7-9,15H,1-6H3

> <PUBCHEM_IUPAC_INCHIKEY>
KDBZVULQVCUNNA-UHFFFAOYSA-N

> <PUBCHEM_XLOGP3_AA>
4.9

> <PUBCHEM_EXACT_MASS>
206.167065321

> <PUBCHEM_MOLECULAR_FORMULA>
C14H22O

> <PUBCHEM_MOLECULAR_WEIGHT>
206.32

> <PUBCHEM_SMILES>
CC(C)(C)C1=CC(=C(C=C1)C(C)(C)C)O

> <PUBCHEM_CONNECTIVITY_SMILES>
CC(C)(C)C1=CC(=C(C=C1)C(C)(C)C)O

> <PUBCHEM_CACTVS_TPSA>
20.2

> <PUBCHEM_MONOISOTOPIC_WEIGHT>
206.167065321

> <PUBCHEM_TOTAL_CHARGE>
0

> <PUBCHEM_HEAVY_ATOM_COUNT>
15

> <PUBCHEM_ATOM_DEF_STEREO_COUNT>
0

> <PUBCHEM_ATOM_UDEF_STEREO_COUNT>
0

> <PUBCHEM_BOND_DEF_STEREO_COUNT>
0

> <PUBCHEM_BOND_UDEF_STEREO_COUNT>
0

> <PUBCHEM_ISOTOPIC_ATOM_COUNT>
0

> <PUBCHEM_COMPONENT_COUNT>
1

> <PUBCHEM_CACTVS_TAUTO_COUNT>
-1

> <PUBCHEM_COORDINATE_TYPE>
1
5
255

> <PUBCHEM_BONDANNOTATIONS>
11  12  8
4  11  8
4  6  8
5  10  8
5  12  8
6  10  8

$$$$
