80808
  -OEChem-05122610002D

 72 73  0     0  0  0  0  0  0999 V2000
    2.8660   -0.5000    0.0000 O   0  0  0  0  0  0  0  0  0  0  0  0
    6.3301    0.5000    0.0000 O   0  0  0  0  0  0  0  0  0  0  0  0
    2.8660   -2.5000    0.0000 C   0  0  0  0  0  0  0  0  0  0  0  0
    6.3301    2.5000    0.0000 C   0  0  0  0  0  0  0  0  0  0  0  0
    6.3301   -2.5000    0.0000 C   0  0  0  0  0  0  0  0  0  0  0  0
    2.8660    2.5000    0.0000 C   0  0  0  0  0  0  0  0  0  0  0  0
    3.7321   -2.0000    0.0000 C   0  0  0  0  0  0  0  0  0  0  0  0
    5.4641    2.0000    0.0000 C   0  0  0  0  0  0  0  0  0  0  0  0
    5.4641   -2.0000    0.0000 C   0  0  0  0  0  0  0  0  0  0  0  0
    3.7321    2.0000    0.0000 C   0  0  0  0  0  0  0  0  0  0  0  0
    4.5981   -0.5000    0.0000 C   0  0  0  0  0  0  0  0  0  0  0  0
    4.5981    0.5000    0.0000 C   0  0  0  0  0  0  0  0  0  0  0  0
    3.7321   -1.0000    0.0000 C   0  0  0  0  0  0  0  0  0  0  0  0
    5.4641    1.0000    0.0000 C   0  0  0  0  0  0  0  0  0  0  0  0
    4.5981   -2.5000    0.0000 C   0  0  0  0  0  0  0  0  0  0  0  0
    4.5981    2.5000    0.0000 C   0  0  0  0  0  0  0  0  0  0  0  0
    5.4641   -1.0000    0.0000 C   0  0  0  0  0  0  0  0  0  0  0  0
    3.7321    1.0000    0.0000 C   0  0  0  0  0  0  0  0  0  0  0  0
    2.0000   -3.0000    0.0000 C   0  0  0  0  0  0  0  0  0  0  0  0
    3.3660   -3.3660    0.0000 C   0  0  0  0  0  0  0  0  0  0  0  0
    2.3660   -1.6340    0.0000 C   0  0  0  0  0  0  0  0  0  0  0  0
    7.1962    3.0000    0.0000 C   0  0  0  0  0  0  0  0  0  0  0  0
    5.8301    3.3660    0.0000 C   0  0  0  0  0  0  0  0  0  0  0  0
    6.8301    1.6340    0.0000 C   0  0  0  0  0  0  0  0  0  0  0  0
    7.1962   -3.0000    0.0000 C   0  0  0  0  0  0  0  0  0  0  0  0
    5.8301   -3.3660    0.0000 C   0  0  0  0  0  0  0  0  0  0  0  0
    6.8301   -1.6340    0.0000 C   0  0  0  0  0  0  0  0  0  0  0  0
    2.0000    3.0000    0.0000 C   0  0  0  0  0  0  0  0  0  0  0  0
    3.3660    3.3660    0.0000 C   0  0  0  0  0  0  0  0  0  0  0  0
    2.3660    1.6340    0.0000 C   0  0  0  0  0  0  0  0  0  0  0  0
    4.5981   -3.1200    0.0000 H   0  0  0  0  0  0  0  0  0  0  0  0
    4.5981    3.1200    0.0000 H   0  0  0  0  0  0  0  0  0  0  0  0
    6.0010   -0.6900    0.0000 H   0  0  0  0  0  0  0  0  0  0  0  0
    3.1951    0.6900    0.0000 H   0  0  0  0  0  0  0  0  0  0  0  0
    1.6900   -2.4631    0.0000 H   0  0  0  0  0  0  0  0  0  0  0  0
    1.4631   -3.3100    0.0000 H   0  0  0  0  0  0  0  0  0  0  0  0
    2.3100   -3.5369    0.0000 H   0  0  0  0  0  0  0  0  0  0  0  0
    2.8291   -3.6760    0.0000 H   0  0  0  0  0  0  0  0  0  0  0  0
    3.6760   -3.9030    0.0000 H   0  0  0  0  0  0  0  0  0  0  0  0
    3.9030   -3.0560    0.0000 H   0  0  0  0  0  0  0  0  0  0  0  0
    2.9030   -1.3240    0.0000 H   0  0  0  0  0  0  0  0  0  0  0  0
    2.0560   -1.0970    0.0000 H   0  0  0  0  0  0  0  0  0  0  0  0
    1.8291   -1.9440    0.0000 H   0  0  0  0  0  0  0  0  0  0  0  0
    7.5062    2.4631    0.0000 H   0  0  0  0  0  0  0  0  0  0  0  0
    7.7331    3.3100    0.0000 H   0  0  0  0  0  0  0  0  0  0  0  0
    6.8862    3.5369    0.0000 H   0  0  0  0  0  0  0  0  0  0  0  0
    6.3671    3.6760    0.0000 H   0  0  0  0  0  0  0  0  0  0  0  0
    5.5201    3.9030    0.0000 H   0  0  0  0  0  0  0  0  0  0  0  0
    5.2932    3.0560    0.0000 H   0  0  0  0  0  0  0  0  0  0  0  0
    6.2932    1.3240    0.0000 H   0  0  0  0  0  0  0  0  0  0  0  0
    7.1401    1.0970    0.0000 H   0  0  0  0  0  0  0  0  0  0  0  0
    7.3671    1.9440    0.0000 H   0  0  0  0  0  0  0  0  0  0  0  0
    6.8862   -3.5369    0.0000 H   0  0  0  0  0  0  0  0  0  0  0  0
    7.7331   -3.3100    0.0000 H   0  0  0  0  0  0  0  0  0  0  0  0
    7.5062   -2.4631    0.0000 H   0  0  0  0  0  0  0  0  0  0  0  0
    5.2932   -3.0560    0.0000 H   0  0  0  0  0  0  0  0  0  0  0  0
    5.5201   -3.9030    0.0000 H   0  0  0  0  0  0  0  0  0  0  0  0
    6.3671   -3.6760    0.0000 H   0  0  0  0  0  0  0  0  0  0  0  0
    7.3671   -1.9440    0.0000 H   0  0  0  0  0  0  0  0  0  0  0  0
    7.1401   -1.0970    0.0000 H   0  0  0  0  0  0  0  0  0  0  0  0
    6.2932   -1.3240    0.0000 H   0  0  0  0  0  0  0  0  0  0  0  0
    2.3100    3.5369    0.0000 H   0  0  0  0  0  0  0  0  0  0  0  0
    1.4631    3.3100    0.0000 H   0  0  0  0  0  0  0  0  0  0  0  0
    1.6900    2.4631    0.0000 H   0  0  0  0  0  0  0  0  0  0  0  0
    3.9030    3.0560    0.0000 H   0  0  0  0  0  0  0  0  0  0  0  0
    3.6760    3.9030    0.0000 H   0  0  0  0  0  0  0  0  0  0  0  0
    2.8291    3.6760    0.0000 H   0  0  0  0  0  0  0  0  0  0  0  0
    1.8291    1.9440    0.0000 H   0  0  0  0  0  0  0  0  0  0  0  0
    2.0560    1.0970    0.0000 H   0  0  0  0  0  0  0  0  0  0  0  0
    2.9030    1.3240    0.0000 H   0  0  0  0  0  0  0  0  0  0  0  0
    2.3291   -0.8100    0.0000 H   0  0  0  0  0  0  0  0  0  0  0  0
    6.8671    0.8100    0.0000 H   0  0  0  0  0  0  0  0  0  0  0  0
  1 13  1  0  0  0  0
  1 71  1  0  0  0  0
  2 14  1  0  0  0  0
  2 72  1  0  0  0  0
  3  7  1  0  0  0  0
  3 19  1  0  0  0  0
  3 20  1  0  0  0  0
  3 21  1  0  0  0  0
  4  8  1  0  0  0  0
  4 22  1  0  0  0  0
  4 23  1  0  0  0  0
  4 24  1  0  0  0  0
  5  9  1  0  0  0  0
  5 25  1  0  0  0  0
  5 26  1  0  0  0  0
  5 27  1  0  0  0  0
  6 10  1  0  0  0  0
  6 28  1  0  0  0  0
  6 29  1  0  0  0  0
  6 30  1  0  0  0  0
  7 13  1  0  0  0  0
  7 15  2  0  0  0  0
  8 14  1  0  0  0  0
  8 16  2  0  0  0  0
  9 15  1  0  0  0  0
  9 17  2  0  0  0  0
 10 16  1  0  0  0  0
 10 18  2  0  0  0  0
 11 12  1  0  0  0  0
 11 13  2  0  0  0  0
 11 17  1  0  0  0  0
 12 14  2  0  0  0  0
 12 18  1  0  0  0  0
 15 31  1  0  0  0  0
 16 32  1  0  0  0  0
 17 33  1  0  0  0  0
 18 34  1  0  0  0  0
 19 35  1  0  0  0  0
 19 36  1  0  0  0  0
 19 37  1  0  0  0  0
 20 38  1  0  0  0  0
 20 39  1  0  0  0  0
 20 40  1  0  0  0  0
 21 41  1  0  0  0  0
 21 42  1  0  0  0  0
 21 43  1  0  0  0  0
 22 44  1  0  0  0  0
 22 45  1  0  0  0  0
 22 46  1  0  0  0  0
 23 47  1  0  0  0  0
 23 48  1  0  0  0  0
 23 49  1  0  0  0  0
 24 50  1  0  0  0  0
 24 51  1  0  0  0  0
 24 52  1  0  0  0  0
 25 53  1  0  0  0  0
 25 54  1  0  0  0  0
 25 55  1  0  0  0  0
 26 56  1  0  0  0  0
 26 57  1  0  0  0  0
 26 58  1  0  0  0  0
 27 59  1  0  0  0  0
 27 60  1  0  0  0  0
 27 61  1  0  0  0  0
 28 62  1  0  0  0  0
 28 63  1  0  0  0  0
 28 64  1  0  0  0  0
 29 65  1  0  0  0  0
 29 66  1  0  0  0  0
 29 67  1  0  0  0  0
 30 68  1  0  0  0  0
 30 69  1  0  0  0  0
 30 70  1  0  0  0  0
M  END
> <PUBCHEM_COMPOUND_CID>
80808

> <PUBCHEM_COMPOUND_CANONICALIZED>
1

> <PUBCHEM_CACTVS_COMPLEXITY>
513

> <PUBCHEM_CACTVS_HBOND_ACCEPTOR>
2

> <PUBCHEM_CACTVS_HBOND_DONOR>
2

> <PUBCHEM_CACTVS_ROTATABLE_BOND>
5

> <PUBCHEM_CACTVS_SUBSKEYS>
AAADcfB4MAAAAAAAAAAAAAAAAAAAAAAAAAAwYAAAAAAAAAABQAAAGgAACAAADgSAmAAyBoAAAgCAAiBCAAACAAAgIAAAiAAECIgIJiKCERKAcAAkwBEImAfAwPAPoAACAAAIAABAAAQAABAAAAAAAAAAAA==

> <PUBCHEM_IUPAC_OPENEYE_NAME>
2,4-ditert-butyl-6-(3,5-ditert-butyl-2-hydroxy-phenyl)phenol

> <PUBCHEM_IUPAC_CAS_NAME>
2,4-ditert-butyl-6-(3,5-ditert-butyl-2-hydroxyphenyl)phenol

> <PUBCHEM_IUPAC_NAME_MARKUP>
2,4-di<I>tert</I>-butyl-6-(3,5-di<I>tert</I>-butyl-2-hydroxyphenyl)phenol

> <PUBCHEM_IUPAC_NAME>
2,4-ditert-butyl-6-(3,5-ditert-butyl-2-hydroxyphenyl)phenol

> <PUBCHEM_IUPAC_SYSTEMATIC_NAME>
2,4-ditert-butyl-6-(3,5-ditert-butyl-2-oxidanyl-phenyl)phenol

> <PUBCHEM_IUPAC_TRADITIONAL_NAME>
2,4-ditert-butyl-6-(3,5-ditert-butyl-2-hydroxy-phenyl)phenol

> <PUBCHEM_IUPAC_INCHI>
InChI=1S/C28H42O2/c1-25(2,3)17-13-19(23(29)21(15-17)27(7,8)9)20-14-18(26(4,5)6)16-22(24(20)30)28(10,11)12/h13-16,29-30H,1-12H3

> <PUBCHEM_IUPAC_INCHIKEY>
GDGDLBOVIAWEAD-UHFFFAOYSA-N

> <PUBCHEM_XLOGP3_AA>
9.5

> <PUBCHEM_EXACT_MASS>
410.318480578

> <PUBCHEM_MOLECULAR_FORMULA>
C28H42O2

> <PUBCHEM_MOLECULAR_WEIGHT>
410.6

> <PUBCHEM_SMILES>
CC(C)(C)C1=CC(=C(C(=C1)C(C)(C)C)O)C2=C(C(=CC(=C2)C(C)(C)C)C(C)(C)C)O

> <PUBCHEM_CONNECTIVITY_SMILES>
CC(C)(C)C1=CC(=C(C(=C1)C(C)(C)C)O)C2=C(C(=CC(=C2)C(C)(C)C)C(C)(C)C)O

> <PUBCHEM_CACTVS_TPSA>
40.5

> <PUBCHEM_MONOISOTOPIC_WEIGHT>
410.318480578

> <PUBCHEM_TOTAL_CHARGE>
0

> <PUBCHEM_HEAVY_ATOM_COUNT>
30

> <PUBCHEM_ATOM_DEF_STEREO_COUNT>
0

> <PUBCHEM_ATOM_UDEF_STEREO_COUNT>
0

> <PUBCHEM_BOND_DEF_STEREO_COUNT>
0

> <PUBCHEM_BOND_UDEF_STEREO_COUNT>
0

> <PUBCHEM_ISOTOPIC_ATOM_COUNT>
0

> <PUBCHEM_COMPONENT_COUNT>
1

> <PUBCHEM_CACTVS_TAUTO_COUNT>
-1

> <PUBCHEM_COORDINATE_TYPE>
1
5
255

> <PUBCHEM_BONDANNOTATIONS>
10  16  8
10  18  8
11  13  8
11  17  8
12  14  8
12  18  8
7  13  8
7  15  8
8  14  8
8  16  8
9  15  8
9  17  8

$$$$
