80827
  -OEChem-05122608582D

 32 34  0     0  0  0  0  0  0999 V2000
    2.9176    1.7623    0.0000 O   0  0  0  0  0  0  0  0  0  0  0  0
    6.4144    1.7623    0.0000 O   0  0  0  0  0  0  0  0  0  0  0  0
    4.6660    1.7277    0.0000 O   0  0  0  0  0  0  0  0  0  0  0  0
    4.6660   -2.2723    0.0000 O   0  0  0  0  0  0  0  0  0  0  0  0
    3.8000    0.2277    0.0000 C   0  0  0  0  0  0  0  0  0  0  0  0
    5.5321    0.2277    0.0000 C   0  0  0  0  0  0  0  0  0  0  0  0
    3.8000   -0.7723    0.0000 C   0  0  0  0  0  0  0  0  0  0  0  0
    5.5321   -0.7723    0.0000 C   0  0  0  0  0  0  0  0  0  0  0  0
    4.6660    0.7277    0.0000 C   0  0  0  0  0  0  0  0  0  0  0  0
    4.6660   -1.2723    0.0000 C   0  0  0  0  0  0  0  0  0  0  0  0
    2.9061    0.7624    0.0000 C   0  0  0  0  0  0  0  0  0  0  0  0
    6.4260    0.7624    0.0000 C   0  0  0  0  0  0  0  0  0  0  0  0
    2.9061   -1.3070    0.0000 C   0  0  0  0  0  0  0  0  0  0  0  0
    6.4260   -1.3070    0.0000 C   0  0  0  0  0  0  0  0  0  0  0  0
    2.0000    0.2485    0.0000 C   0  0  0  0  0  0  0  0  0  0  0  0
    7.3321    0.2485    0.0000 C   0  0  0  0  0  0  0  0  0  0  0  0
    2.0000   -0.7931    0.0000 C   0  0  0  0  0  0  0  0  0  0  0  0
    7.3321   -0.7931    0.0000 C   0  0  0  0  0  0  0  0  0  0  0  0
    2.0574    2.2723    0.0000 C   0  0  0  0  0  0  0  0  0  0  0  0
    7.2746    2.2723    0.0000 C   0  0  0  0  0  0  0  0  0  0  0  0
    2.9132   -1.9269    0.0000 H   0  0  0  0  0  0  0  0  0  0  0  0
    6.4188   -1.9269    0.0000 H   0  0  0  0  0  0  0  0  0  0  0  0
    1.4643    0.5606    0.0000 H   0  0  0  0  0  0  0  0  0  0  0  0
    7.8678    0.5606    0.0000 H   0  0  0  0  0  0  0  0  0  0  0  0
    1.4643   -1.1052    0.0000 H   0  0  0  0  0  0  0  0  0  0  0  0
    7.8678   -1.1052    0.0000 H   0  0  0  0  0  0  0  0  0  0  0  0
    2.3736    2.8056    0.0000 H   0  0  0  0  0  0  0  0  0  0  0  0
    1.5241    2.5885    0.0000 H   0  0  0  0  0  0  0  0  0  0  0  0
    1.7413    1.7390    0.0000 H   0  0  0  0  0  0  0  0  0  0  0  0
    7.5908    1.7390    0.0000 H   0  0  0  0  0  0  0  0  0  0  0  0
    7.8079    2.5885    0.0000 H   0  0  0  0  0  0  0  0  0  0  0  0
    6.9584    2.8056    0.0000 H   0  0  0  0  0  0  0  0  0  0  0  0
  1 11  1  0  0  0  0
  1 19  1  0  0  0  0
  2 12  1  0  0  0  0
  2 20  1  0  0  0  0
  3  9  2  0  0  0  0
  4 10  2  0  0  0  0
  5  7  2  0  0  0  0
  5  9  1  0  0  0  0
  5 11  1  0  0  0  0
  6  8  2  0  0  0  0
  6  9  1  0  0  0  0
  6 12  1  0  0  0  0
  7 10  1  0  0  0  0
  7 13  1  0  0  0  0
  8 10  1  0  0  0  0
  8 14  1  0  0  0  0
 11 15  2  0  0  0  0
 12 16  2  0  0  0  0
 13 17  2  0  0  0  0
 13 21  1  0  0  0  0
 14 18  2  0  0  0  0
 14 22  1  0  0  0  0
 15 17  1  0  0  0  0
 15 23  1  0  0  0  0
 16 18  1  0  0  0  0
 16 24  1  0  0  0  0
 17 25  1  0  0  0  0
 18 26  1  0  0  0  0
 19 27  1  0  0  0  0
 19 28  1  0  0  0  0
 19 29  1  0  0  0  0
 20 30  1  0  0  0  0
 20 31  1  0  0  0  0
 20 32  1  0  0  0  0
M  END
> <PUBCHEM_COMPOUND_CID>
80827

> <PUBCHEM_COMPOUND_CANONICALIZED>
1

> <PUBCHEM_CACTVS_COMPLEXITY>
371

> <PUBCHEM_CACTVS_HBOND_ACCEPTOR>
4

> <PUBCHEM_CACTVS_HBOND_DONOR>
0

> <PUBCHEM_CACTVS_ROTATABLE_BOND>
2

> <PUBCHEM_CACTVS_SUBSKEYS>
AAADccB4OAAAAAAAAAAAAAAAAAAAAAAAAAAwYMAAAAAAAADBQAAAGgAAAAAADASAmAIyBoAABACIAqBSAAACCAAkIAAIiAEGCMgMJjaENRqAMWAk4BEIqYeL6PyOgAABAAAYAACAAAYAADAAAAAAAAAAAA==

> <PUBCHEM_IUPAC_OPENEYE_NAME>
1,8-dimethoxyanthracene-9,10-dione

> <PUBCHEM_IUPAC_CAS_NAME>
1,8-dimethoxyanthracene-9,10-dione

> <PUBCHEM_IUPAC_NAME_MARKUP>
1,8-dimethoxyanthracene-9,10-dione

> <PUBCHEM_IUPAC_NAME>
1,8-dimethoxyanthracene-9,10-dione

> <PUBCHEM_IUPAC_SYSTEMATIC_NAME>
1,8-dimethoxyanthracene-9,10-dione

> <PUBCHEM_IUPAC_TRADITIONAL_NAME>
1,8-dimethoxy-9,10-anthraquinone

> <PUBCHEM_IUPAC_INCHI>
InChI=1S/C16H12O4/c1-19-11-7-3-5-9-13(11)16(18)14-10(15(9)17)6-4-8-12(14)20-2/h3-8H,1-2H3

> <PUBCHEM_IUPAC_INCHIKEY>
QCSZITHNACKGTF-UHFFFAOYSA-N

> <PUBCHEM_XLOGP3_AA>
2.8

> <PUBCHEM_EXACT_MASS>
268.07355886

> <PUBCHEM_MOLECULAR_FORMULA>
C16H12O4

> <PUBCHEM_MOLECULAR_WEIGHT>
268.26

> <PUBCHEM_SMILES>
COC1=CC=CC2=C1C(=O)C3=C(C2=O)C=CC=C3OC

> <PUBCHEM_CONNECTIVITY_SMILES>
COC1=CC=CC2=C1C(=O)C3=C(C2=O)C=CC=C3OC

> <PUBCHEM_CACTVS_TPSA>
52.6

> <PUBCHEM_MONOISOTOPIC_WEIGHT>
268.07355886

> <PUBCHEM_TOTAL_CHARGE>
0

> <PUBCHEM_HEAVY_ATOM_COUNT>
20

> <PUBCHEM_ATOM_DEF_STEREO_COUNT>
0

> <PUBCHEM_ATOM_UDEF_STEREO_COUNT>
0

> <PUBCHEM_BOND_DEF_STEREO_COUNT>
0

> <PUBCHEM_BOND_UDEF_STEREO_COUNT>
0

> <PUBCHEM_ISOTOPIC_ATOM_COUNT>
0

> <PUBCHEM_COMPONENT_COUNT>
1

> <PUBCHEM_CACTVS_TAUTO_COUNT>
-1

> <PUBCHEM_COORDINATE_TYPE>
1
5
255

> <PUBCHEM_BONDANNOTATIONS>
11  15  8
12  16  8
13  17  8
14  18  8
15  17  8
16  18  8
5  11  8
5  7  8
6  12  8
6  8  8
7  13  8
8  14  8

$$$$
