81179
  -OEChem-05122608152D

 25 25  0     0  0  0  0  0  0999 V2000
    2.8660    0.8170    0.0000 O   0  0  0  0  0  0  0  0  0  0  0  0
    3.7321    1.3170    0.0000 C   0  0  0  0  0  0  0  0  0  0  0  0
    4.5981    1.8170    0.0000 C   0  0  0  0  0  0  0  0  0  0  0  0
    3.2321    2.1830    0.0000 C   0  0  0  0  0  0  0  0  0  0  0  0
    4.2321    0.4510    0.0000 C   0  0  0  0  0  0  0  0  0  0  0  0
    2.8660   -0.1830    0.0000 C   0  0  0  0  0  0  0  0  0  0  0  0
    2.0000   -0.6830    0.0000 C   0  0  0  0  0  0  0  0  0  0  0  0
    3.7321   -0.6830    0.0000 C   0  0  0  0  0  0  0  0  0  0  0  0
    2.0000   -1.6830    0.0000 C   0  0  0  0  0  0  0  0  0  0  0  0
    3.7321   -1.6830    0.0000 C   0  0  0  0  0  0  0  0  0  0  0  0
    2.8660   -2.1830    0.0000 C   0  0  0  0  0  0  0  0  0  0  0  0
    4.9081    1.2801    0.0000 H   0  0  0  0  0  0  0  0  0  0  0  0
    5.1350    2.1270    0.0000 H   0  0  0  0  0  0  0  0  0  0  0  0
    4.2881    2.3539    0.0000 H   0  0  0  0  0  0  0  0  0  0  0  0
    3.7690    2.4930    0.0000 H   0  0  0  0  0  0  0  0  0  0  0  0
    2.9221    2.7200    0.0000 H   0  0  0  0  0  0  0  0  0  0  0  0
    2.6951    1.8730    0.0000 H   0  0  0  0  0  0  0  0  0  0  0  0
    3.6951    0.1410    0.0000 H   0  0  0  0  0  0  0  0  0  0  0  0
    4.5421   -0.0860    0.0000 H   0  0  0  0  0  0  0  0  0  0  0  0
    4.7690    0.7610    0.0000 H   0  0  0  0  0  0  0  0  0  0  0  0
    1.4631   -0.3730    0.0000 H   0  0  0  0  0  0  0  0  0  0  0  0
    4.2690   -0.3730    0.0000 H   0  0  0  0  0  0  0  0  0  0  0  0
    1.4631   -1.9930    0.0000 H   0  0  0  0  0  0  0  0  0  0  0  0
    4.2690   -1.9930    0.0000 H   0  0  0  0  0  0  0  0  0  0  0  0
    2.8660   -2.8030    0.0000 H   0  0  0  0  0  0  0  0  0  0  0  0
  1  2  1  0  0  0  0
  1  6  1  0  0  0  0
  2  3  1  0  0  0  0
  2  4  1  0  0  0  0
  2  5  1  0  0  0  0
  3 12  1  0  0  0  0
  3 13  1  0  0  0  0
  3 14  1  0  0  0  0
  4 15  1  0  0  0  0
  4 16  1  0  0  0  0
  4 17  1  0  0  0  0
  5 18  1  0  0  0  0
  5 19  1  0  0  0  0
  5 20  1  0  0  0  0
  6  7  2  0  0  0  0
  6  8  1  0  0  0  0
  7  9  1  0  0  0  0
  7 21  1  0  0  0  0
  8 10  2  0  0  0  0
  8 22  1  0  0  0  0
  9 11  2  0  0  0  0
  9 23  1  0  0  0  0
 10 11  1  0  0  0  0
 10 24  1  0  0  0  0
 11 25  1  0  0  0  0
M  END
> <PUBCHEM_COMPOUND_CID>
81179

> <PUBCHEM_COMPOUND_CANONICALIZED>
1

> <PUBCHEM_CACTVS_COMPLEXITY>
107

> <PUBCHEM_CACTVS_HBOND_ACCEPTOR>
1

> <PUBCHEM_CACTVS_HBOND_DONOR>
0

> <PUBCHEM_CACTVS_ROTATABLE_BOND>
2

> <PUBCHEM_CACTVS_SUBSKEYS>
AAADccBwIAAAAAAAAAAAAAAAAAAAAAAAAAAwAAAAAAAAAAABAAAAGgAAAAAADESAkAAyBoAABACAACBCAAACCAAgIAAIiAAGCIgMJiKEMRqCOCCkwBEIqAeAQAAAAAAAAAAAAAAAAAAAAAAAAAAAAAAAAA==

> <PUBCHEM_IUPAC_OPENEYE_NAME>
tert-butoxybenzene

> <PUBCHEM_IUPAC_CAS_NAME>
(2-methylpropan-2-yl)oxybenzene

> <PUBCHEM_IUPAC_NAME_MARKUP>
(2-methylpropan-2-yl)oxybenzene

> <PUBCHEM_IUPAC_NAME>
(2-methylpropan-2-yl)oxybenzene

> <PUBCHEM_IUPAC_SYSTEMATIC_NAME>
(2-methylpropan-2-yl)oxybenzene

> <PUBCHEM_IUPAC_TRADITIONAL_NAME>
tert-butoxybenzene

> <PUBCHEM_IUPAC_INCHI>
InChI=1S/C10H14O/c1-10(2,3)11-9-7-5-4-6-8-9/h4-8H,1-3H3

> <PUBCHEM_IUPAC_INCHIKEY>
PNKZBZPLRKCVLI-UHFFFAOYSA-N

> <PUBCHEM_XLOGP3>
2.9

> <PUBCHEM_EXACT_MASS>
150.104465066

> <PUBCHEM_MOLECULAR_FORMULA>
C10H14O

> <PUBCHEM_MOLECULAR_WEIGHT>
150.22

> <PUBCHEM_SMILES>
CC(C)(C)OC1=CC=CC=C1

> <PUBCHEM_CONNECTIVITY_SMILES>
CC(C)(C)OC1=CC=CC=C1

> <PUBCHEM_CACTVS_TPSA>
9.2

> <PUBCHEM_MONOISOTOPIC_WEIGHT>
150.104465066

> <PUBCHEM_TOTAL_CHARGE>
0

> <PUBCHEM_HEAVY_ATOM_COUNT>
11

> <PUBCHEM_ATOM_DEF_STEREO_COUNT>
0

> <PUBCHEM_ATOM_UDEF_STEREO_COUNT>
0

> <PUBCHEM_BOND_DEF_STEREO_COUNT>
0

> <PUBCHEM_BOND_UDEF_STEREO_COUNT>
0

> <PUBCHEM_ISOTOPIC_ATOM_COUNT>
0

> <PUBCHEM_COMPONENT_COUNT>
1

> <PUBCHEM_CACTVS_TAUTO_COUNT>
-1

> <PUBCHEM_COORDINATE_TYPE>
1
5
255

> <PUBCHEM_BONDANNOTATIONS>
10  11  8
6  7  8
6  8  8
7  9  8
8  10  8
9  11  8

$$$$
