81245
  -OEChem-05122610042D

 70 74  0     0  0  0  0  0  0999 V2000
    7.5000   -0.7500    0.0000 O   0  0  0  0  0  0  0  0  0  0  0  0
    6.5000    3.2500    0.0000 N   0  0  0  0  0  0  0  0  0  0  0  0
    6.5000   -4.7500    0.0000 N   0  0  0  0  0  0  0  0  0  0  0  0
    2.5000   -0.7500    0.0000 N   0  0  0  0  0  0  0  0  0  0  0  0
    6.5000   -0.7500    0.0000 C   0  0  0  0  0  0  0  0  0  0  0  0
    6.5000    0.2500    0.0000 C   0  0  0  0  0  0  0  0  0  0  0  0
    6.5000   -1.7500    0.0000 C   0  0  0  0  0  0  0  0  0  0  0  0
    5.5000   -0.7500    0.0000 C   0  0  0  0  0  0  0  0  0  0  0  0
    7.3660    0.7500    0.0000 C   0  0  0  0  0  0  0  0  0  0  0  0
    7.3660    1.7500    0.0000 C   0  0  0  0  0  0  0  0  0  0  0  0
    5.6340    0.7500    0.0000 C   0  0  0  0  0  0  0  0  0  0  0  0
    6.5000    2.2500    0.0000 C   0  0  0  0  0  0  0  0  0  0  0  0
    5.6340   -2.2500    0.0000 C   0  0  0  0  0  0  0  0  0  0  0  0
    5.0000    0.1160    0.0000 C   0  0  0  0  0  0  0  0  0  0  0  0
    7.3660   -2.2500    0.0000 C   0  0  0  0  0  0  0  0  0  0  0  0
    5.0000   -1.6160    0.0000 C   0  0  0  0  0  0  0  0  0  0  0  0
    5.6340    1.7500    0.0000 C   0  0  0  0  0  0  0  0  0  0  0  0
    8.2600    0.2153    0.0000 C   0  0  0  0  0  0  0  0  0  0  0  0
    8.2600    2.2847    0.0000 C   0  0  0  0  0  0  0  0  0  0  0  0
    6.5000   -3.7500    0.0000 C   0  0  0  0  0  0  0  0  0  0  0  0
    3.5000   -0.7500    0.0000 C   0  0  0  0  0  0  0  0  0  0  0  0
    5.6340   -3.2500    0.0000 C   0  0  0  0  0  0  0  0  0  0  0  0
    4.0000    0.1160    0.0000 C   0  0  0  0  0  0  0  0  0  0  0  0
    7.3660   -3.2500    0.0000 C   0  0  0  0  0  0  0  0  0  0  0  0
    4.0000   -1.6160    0.0000 C   0  0  0  0  0  0  0  0  0  0  0  0
    9.1660    0.7292    0.0000 C   0  0  0  0  0  0  0  0  0  0  0  0
    9.1660    1.7708    0.0000 C   0  0  0  0  0  0  0  0  0  0  0  0
    5.6340    3.7500    0.0000 C   0  0  0  0  0  0  0  0  0  0  0  0
    7.3660   -5.2500    0.0000 C   0  0  0  0  0  0  0  0  0  0  0  0
    5.6340   -5.2500    0.0000 C   0  0  0  0  0  0  0  0  0  0  0  0
    2.0000   -1.6160    0.0000 C   0  0  0  0  0  0  0  0  0  0  0  0
    2.0000    0.1160    0.0000 C   0  0  0  0  0  0  0  0  0  0  0  0
    5.6340    4.7500    0.0000 C   0  0  0  0  0  0  0  0  0  0  0  0
    4.7680    3.2500    0.0000 C   0  0  0  0  0  0  0  0  0  0  0  0
    4.7680    5.2500    0.0000 C   0  0  0  0  0  0  0  0  0  0  0  0
    3.9019    3.7500    0.0000 C   0  0  0  0  0  0  0  0  0  0  0  0
    3.9019    4.7500    0.0000 C   0  0  0  0  0  0  0  0  0  0  0  0
    5.0970    0.4400    0.0000 H   0  0  0  0  0  0  0  0  0  0  0  0
    5.0970   -1.9400    0.0000 H   0  0  0  0  0  0  0  0  0  0  0  0
    5.3100    0.6530    0.0000 H   0  0  0  0  0  0  0  0  0  0  0  0
    7.9030   -1.9400    0.0000 H   0  0  0  0  0  0  0  0  0  0  0  0
    5.3100   -2.1530    0.0000 H   0  0  0  0  0  0  0  0  0  0  0  0
    5.0970    2.0600    0.0000 H   0  0  0  0  0  0  0  0  0  0  0  0
    8.2528   -0.4046    0.0000 H   0  0  0  0  0  0  0  0  0  0  0  0
    7.8100   -1.2869    0.0000 H   0  0  0  0  0  0  0  0  0  0  0  0
    8.2528    2.9046    0.0000 H   0  0  0  0  0  0  0  0  0  0  0  0
    5.0970   -3.5600    0.0000 H   0  0  0  0  0  0  0  0  0  0  0  0
    3.6900    0.6530    0.0000 H   0  0  0  0  0  0  0  0  0  0  0  0
    7.9030   -3.5600    0.0000 H   0  0  0  0  0  0  0  0  0  0  0  0
    3.6900   -2.1530    0.0000 H   0  0  0  0  0  0  0  0  0  0  0  0
    9.7018    0.4171    0.0000 H   0  0  0  0  0  0  0  0  0  0  0  0
    7.0369    3.5600    0.0000 H   0  0  0  0  0  0  0  0  0  0  0  0
    9.7018    2.0829    0.0000 H   0  0  0  0  0  0  0  0  0  0  0  0
    7.0560   -5.7869    0.0000 H   0  0  0  0  0  0  0  0  0  0  0  0
    7.9030   -5.5600    0.0000 H   0  0  0  0  0  0  0  0  0  0  0  0
    7.6760   -4.7131    0.0000 H   0  0  0  0  0  0  0  0  0  0  0  0
    5.3240   -4.7131    0.0000 H   0  0  0  0  0  0  0  0  0  0  0  0
    5.0970   -5.5600    0.0000 H   0  0  0  0  0  0  0  0  0  0  0  0
    5.9440   -5.7869    0.0000 H   0  0  0  0  0  0  0  0  0  0  0  0
    1.4631   -1.3060    0.0000 H   0  0  0  0  0  0  0  0  0  0  0  0
    1.6900   -2.1530    0.0000 H   0  0  0  0  0  0  0  0  0  0  0  0
    2.5369   -1.9260    0.0000 H   0  0  0  0  0  0  0  0  0  0  0  0
    2.5369    0.4260    0.0000 H   0  0  0  0  0  0  0  0  0  0  0  0
    1.6900    0.6530    0.0000 H   0  0  0  0  0  0  0  0  0  0  0  0
    1.4631   -0.1940    0.0000 H   0  0  0  0  0  0  0  0  0  0  0  0
    6.1709    5.0600    0.0000 H   0  0  0  0  0  0  0  0  0  0  0  0
    4.7680    2.6300    0.0000 H   0  0  0  0  0  0  0  0  0  0  0  0
    4.7680    5.8700    0.0000 H   0  0  0  0  0  0  0  0  0  0  0  0
    3.3650    3.4400    0.0000 H   0  0  0  0  0  0  0  0  0  0  0  0
    3.3650    5.0600    0.0000 H   0  0  0  0  0  0  0  0  0  0  0  0
  1  5  1  0  0  0  0
  1 45  1  0  0  0  0
  2 12  1  0  0  0  0
  2 28  1  0  0  0  0
  2 52  1  0  0  0  0
  3 20  1  0  0  0  0
  3 29  1  0  0  0  0
  3 30  1  0  0  0  0
  4 21  1  0  0  0  0
  4 31  1  0  0  0  0
  4 32  1  0  0  0  0
  5  6  1  0  0  0  0
  5  7  1  0  0  0  0
  5  8  1  0  0  0  0
  6  9  1  0  0  0  0
  6 11  2  0  0  0  0
  7 13  2  0  0  0  0
  7 15  1  0  0  0  0
  8 14  2  0  0  0  0
  8 16  1  0  0  0  0
  9 10  1  0  0  0  0
  9 18  2  0  0  0  0
 10 12  1  0  0  0  0
 10 19  2  0  0  0  0
 11 17  1  0  0  0  0
 11 38  1  0  0  0  0
 12 17  2  0  0  0  0
 13 22  1  0  0  0  0
 13 39  1  0  0  0  0
 14 23  1  0  0  0  0
 14 40  1  0  0  0  0
 15 24  2  0  0  0  0
 15 41  1  0  0  0  0
 16 25  2  0  0  0  0
 16 42  1  0  0  0  0
 17 43  1  0  0  0  0
 18 26  1  0  0  0  0
 18 44  1  0  0  0  0
 19 27  1  0  0  0  0
 19 46  1  0  0  0  0
 20 22  2  0  0  0  0
 20 24  1  0  0  0  0
 21 23  2  0  0  0  0
 21 25  1  0  0  0  0
 22 47  1  0  0  0  0
 23 48  1  0  0  0  0
 24 49  1  0  0  0  0
 25 50  1  0  0  0  0
 26 27  2  0  0  0  0
 26 51  1  0  0  0  0
 27 53  1  0  0  0  0
 28 33  2  0  0  0  0
 28 34  1  0  0  0  0
 29 54  1  0  0  0  0
 29 55  1  0  0  0  0
 29 56  1  0  0  0  0
 30 57  1  0  0  0  0
 30 58  1  0  0  0  0
 30 59  1  0  0  0  0
 31 60  1  0  0  0  0
 31 61  1  0  0  0  0
 31 62  1  0  0  0  0
 32 63  1  0  0  0  0
 32 64  1  0  0  0  0
 32 65  1  0  0  0  0
 33 35  1  0  0  0  0
 33 66  1  0  0  0  0
 34 36  2  0  0  0  0
 34 67  1  0  0  0  0
 35 37  2  0  0  0  0
 35 68  1  0  0  0  0
 36 37  1  0  0  0  0
 36 69  1  0  0  0  0
 37 70  1  0  0  0  0
M  END
> <PUBCHEM_COMPOUND_CID>
81245

> <PUBCHEM_COMPOUND_CANONICALIZED>
1

> <PUBCHEM_CACTVS_COMPLEXITY>
660

> <PUBCHEM_CACTVS_HBOND_ACCEPTOR>
4

> <PUBCHEM_CACTVS_HBOND_DONOR>
2

> <PUBCHEM_CACTVS_ROTATABLE_BOND>
7

> <PUBCHEM_CACTVS_SUBSKEYS>
AAADcfB/IAAAAAAAAAAAAAAAAAAAAAAAAAAwYMGDAAAAAADBVAAAHgAQCAAADEyBmAQywMPAAgCAAiRCQACCAAAhAgAIiAAIbIgIJmLAkZGEcAhk0AHI2AeQ0OMOiAACQAASAAAQAASAACQAAAAAAAAAAA==

> <PUBCHEM_IUPAC_OPENEYE_NAME>
(4-anilino-1-naphthyl)-bis[4-(dimethylamino)phenyl]methanol

> <PUBCHEM_IUPAC_CAS_NAME>
(4-anilino-1-naphthalenyl)-bis[4-(dimethylamino)phenyl]methanol

> <PUBCHEM_IUPAC_NAME_MARKUP>
(4-anilinonaphthalen-1-yl)-bis[4-(dimethylamino)phenyl]methanol

> <PUBCHEM_IUPAC_NAME>
(4-anilinonaphthalen-1-yl)-bis[4-(dimethylamino)phenyl]methanol

> <PUBCHEM_IUPAC_SYSTEMATIC_NAME>
bis[4-(dimethylamino)phenyl]-(4-phenylazanylnaphthalen-1-yl)methanol

> <PUBCHEM_IUPAC_TRADITIONAL_NAME>
(4-anilino-1-naphthyl)-bis[4-(dimethylamino)phenyl]methanol

> <PUBCHEM_IUPAC_INCHI>
InChI=1S/C33H33N3O/c1-35(2)27-18-14-24(15-19-27)33(37,25-16-20-28(21-17-25)36(3)4)31-22-23-32(30-13-9-8-12-29(30)31)34-26-10-6-5-7-11-26/h5-23,34,37H,1-4H3

> <PUBCHEM_IUPAC_INCHIKEY>
WNDULEJVCPEASN-UHFFFAOYSA-N

> <PUBCHEM_XLOGP3_AA>
7.3

> <PUBCHEM_EXACT_MASS>
487.262362685

> <PUBCHEM_MOLECULAR_FORMULA>
C33H33N3O

> <PUBCHEM_MOLECULAR_WEIGHT>
487.6

> <PUBCHEM_SMILES>
CN(C)C1=CC=C(C=C1)C(C2=CC=C(C=C2)N(C)C)(C3=CC=C(C4=CC=CC=C43)NC5=CC=CC=C5)O

> <PUBCHEM_CONNECTIVITY_SMILES>
CN(C)C1=CC=C(C=C1)C(C2=CC=C(C=C2)N(C)C)(C3=CC=C(C4=CC=CC=C43)NC5=CC=CC=C5)O

> <PUBCHEM_CACTVS_TPSA>
38.7

> <PUBCHEM_MONOISOTOPIC_WEIGHT>
487.262362685

> <PUBCHEM_TOTAL_CHARGE>
0

> <PUBCHEM_HEAVY_ATOM_COUNT>
37

> <PUBCHEM_ATOM_DEF_STEREO_COUNT>
0

> <PUBCHEM_ATOM_UDEF_STEREO_COUNT>
0

> <PUBCHEM_BOND_DEF_STEREO_COUNT>
0

> <PUBCHEM_BOND_UDEF_STEREO_COUNT>
0

> <PUBCHEM_ISOTOPIC_ATOM_COUNT>
0

> <PUBCHEM_COMPONENT_COUNT>
1

> <PUBCHEM_CACTVS_TAUTO_COUNT>
-1

> <PUBCHEM_COORDINATE_TYPE>
1
5
255

> <PUBCHEM_BONDANNOTATIONS>
10  12  8
10  19  8
11  17  8
12  17  8
13  22  8
14  23  8
15  24  8
16  25  8
18  26  8
19  27  8
20  22  8
20  24  8
21  23  8
21  25  8
26  27  8
28  33  8
28  34  8
33  35  8
34  36  8
35  37  8
36  37  8
6  11  8
6  9  8
7  13  8
7  15  8
8  14  8
8  16  8
9  10  8
9  18  8

$$$$
