81271
  -OEChem-05122608162D

 37 42  0     0  0  0  0  0  0999 V2000
    6.4212   -0.1863    0.0000 O   0  0  0  0  0  0  0  0  0  0  0  0
    4.6892   -0.1863    0.0000 N   0  0  0  0  0  0  0  0  0  0  0  0
    2.9132   -0.1931    0.0000 N   0  0  0  0  0  0  0  0  0  0  0  0
    3.8232    0.3137    0.0000 C   0  0  0  0  0  0  0  0  0  0  0  0
    4.6892    1.8137    0.0000 C   0  0  0  0  0  0  0  0  0  0  0  0
    3.8232    1.3137    0.0000 C   0  0  0  0  0  0  0  0  0  0  0  0
    4.7053   -1.2278    0.0000 C   0  0  0  0  0  0  0  0  0  0  0  0
    3.8072   -1.7555    0.0000 C   0  0  0  0  0  0  0  0  0  0  0  0
    5.5552    1.3137    0.0000 C   0  0  0  0  0  0  0  0  0  0  0  0
    5.5552    0.3137    0.0000 C   0  0  0  0  0  0  0  0  0  0  0  0
    2.9051   -1.2347    0.0000 C   0  0  0  0  0  0  0  0  0  0  0  0
    4.7053    2.8552    0.0000 C   0  0  0  0  0  0  0  0  0  0  0  0
    3.7989   -2.8405    0.0000 C   0  0  0  0  0  0  0  0  0  0  0  0
    2.9132    1.8206    0.0000 C   0  0  0  0  0  0  0  0  0  0  0  0
    5.6572   -1.7484    0.0000 C   0  0  0  0  0  0  0  0  0  0  0  0
    6.4147    1.8085    0.0000 C   0  0  0  0  0  0  0  0  0  0  0  0
    3.8072    3.3830    0.0000 C   0  0  0  0  0  0  0  0  0  0  0  0
    5.5824    3.3180    0.0000 C   0  0  0  0  0  0  0  0  0  0  0  0
    2.0099   -1.7548    0.0000 C   0  0  0  0  0  0  0  0  0  0  0  0
    4.7385   -3.3830    0.0000 C   0  0  0  0  0  0  0  0  0  0  0  0
    2.9051    2.8622    0.0000 C   0  0  0  0  0  0  0  0  0  0  0  0
    2.8851   -3.3272    0.0000 C   0  0  0  0  0  0  0  0  0  0  0  0
    5.6739   -2.8333    0.0000 C   0  0  0  0  0  0  0  0  0  0  0  0
    6.4281    2.8001    0.0000 C   0  0  0  0  0  0  0  0  0  0  0  0
    2.0000   -2.7901    0.0000 C   0  0  0  0  0  0  0  0  0  0  0  0
    2.3799    1.5044    0.0000 H   0  0  0  0  0  0  0  0  0  0  0  0
    6.1880   -1.4281    0.0000 H   0  0  0  0  0  0  0  0  0  0  0  0
    6.9493    1.4945    0.0000 H   0  0  0  0  0  0  0  0  0  0  0  0
    3.8096    4.0030    0.0000 H   0  0  0  0  0  0  0  0  0  0  0  0
    5.6022    3.9377    0.0000 H   0  0  0  0  0  0  0  0  0  0  0  0
    1.4741   -1.4430    0.0000 H   0  0  0  0  0  0  0  0  0  0  0  0
    4.7409   -4.0030    0.0000 H   0  0  0  0  0  0  0  0  0  0  0  0
    2.3670    3.1701    0.0000 H   0  0  0  0  0  0  0  0  0  0  0  0
    2.8677   -3.9470    0.0000 H   0  0  0  0  0  0  0  0  0  0  0  0
    6.2144   -3.1370    0.0000 H   0  0  0  0  0  0  0  0  0  0  0  0
    6.9711    3.0995    0.0000 H   0  0  0  0  0  0  0  0  0  0  0  0
    1.4583   -3.0916    0.0000 H   0  0  0  0  0  0  0  0  0  0  0  0
  1 10  2  0  0  0  0
  2  4  1  0  0  0  0
  2  7  1  0  0  0  0
  2 10  1  0  0  0  0
  3  4  2  0  0  0  0
  3 11  1  0  0  0  0
  4  6  1  0  0  0  0
  5  6  1  0  0  0  0
  5  9  1  0  0  0  0
  5 12  2  0  0  0  0
  6 14  2  0  0  0  0
  7  8  1  0  0  0  0
  7 15  2  0  0  0  0
  8 11  1  0  0  0  0
  8 13  2  0  0  0  0
  9 10  1  0  0  0  0
  9 16  2  0  0  0  0
 11 19  2  0  0  0  0
 12 17  1  0  0  0  0
 12 18  1  0  0  0  0
 13 20  1  0  0  0  0
 13 22  1  0  0  0  0
 14 21  1  0  0  0  0
 14 26  1  0  0  0  0
 15 23  1  0  0  0  0
 15 27  1  0  0  0  0
 16 24  1  0  0  0  0
 16 28  1  0  0  0  0
 17 21  2  0  0  0  0
 17 29  1  0  0  0  0
 18 24  2  0  0  0  0
 18 30  1  0  0  0  0
 19 25  1  0  0  0  0
 19 31  1  0  0  0  0
 20 23  2  0  0  0  0
 20 32  1  0  0  0  0
 21 33  1  0  0  0  0
 22 25  2  0  0  0  0
 22 34  1  0  0  0  0
 23 35  1  0  0  0  0
 24 36  1  0  0  0  0
 25 37  1  0  0  0  0
M  END
> <PUBCHEM_COMPOUND_CID>
81271

> <PUBCHEM_COMPOUND_CANONICALIZED>
1

> <PUBCHEM_CACTVS_COMPLEXITY>
613

> <PUBCHEM_CACTVS_HBOND_ACCEPTOR>
2

> <PUBCHEM_CACTVS_HBOND_DONOR>
0

> <PUBCHEM_CACTVS_ROTATABLE_BOND>
0

> <PUBCHEM_CACTVS_SUBSKEYS>
AAADccB7IAAAAAAAAAAAAAAAAAAAAAAAAAA8YMGCAAAAAADxVAAAHgAAAAAADAiBmAAxwMMAAACoAidydACCAAElAgAJiAEgZNgIILLA3dGEIQhghADIyYcYicCOgAACQAASAAAAAASAACQAAAAAAAAAAA==

> <PUBCHEM_IUPAC_OPENEYE_NAME>
2,14-diazahexacyclo[13.7.1.14,8.02,13.019,23.012,24]tetracosa-1(22),4,6,8(24),9,11,13,15,17,19(23),20-undecaen-3-one

> <PUBCHEM_IUPAC_CAS_NAME>
2,14-diazahexacyclo[13.7.1.14,8.02,13.019,23.012,24]tetracosa-1(22),4,6,8(24),9,11,13,15,17,19(23),20-undecaen-3-one

> <PUBCHEM_IUPAC_NAME_MARKUP>
2,14-diazahexacyclo[13.7.1.1<SUP>4,8</SUP>.0<SUP>2,13</SUP>.0<SUP>19,23</SUP>.0<SUP>12,24</SUP>]tetracosa-1(22),4,6,8(24),9,11,13,15,17,19(23),20-undecaen-3-one

> <PUBCHEM_IUPAC_NAME>
2,14-diazahexacyclo[13.7.1.14,8.02,13.019,23.012,24]tetracosa-1(22),4,6,8(24),9,11,13,15,17,19(23),20-undecaen-3-one

> <PUBCHEM_IUPAC_SYSTEMATIC_NAME>
2,14-diazahexacyclo[13.7.1.14,8.02,13.019,23.012,24]tetracosa-1(22),4,6,8(24),9,11,13,15,17,19(23),20-undecaen-3-one

> <PUBCHEM_IUPAC_TRADITIONAL_NAME>
2,14-diazahexacyclo[13.7.1.14,8.02,13.019,23.012,24]tetracosa-1(22),4,6,8(24),9,11,13,15,17,19(23),20-undecaen-3-one

> <PUBCHEM_IUPAC_INCHI>
InChI=1S/C22H12N2O/c25-22-16-10-2-6-13-5-1-9-15(19(13)16)21-23-17-11-3-7-14-8-4-12-18(20(14)17)24(21)22/h1-12H

> <PUBCHEM_IUPAC_INCHIKEY>
NIDFGXDXQKPZMA-UHFFFAOYSA-N

> <PUBCHEM_XLOGP3_AA>
4.7

> <PUBCHEM_EXACT_MASS>
320.094963011

> <PUBCHEM_MOLECULAR_FORMULA>
C22H12N2O

> <PUBCHEM_MOLECULAR_WEIGHT>
320.3

> <PUBCHEM_SMILES>
C1=CC2=C3C(=C1)C4=NC5=CC=CC6=C5C(=CC=C6)N4C(=O)C3=CC=C2

> <PUBCHEM_CONNECTIVITY_SMILES>
C1=CC2=C3C(=C1)C4=NC5=CC=CC6=C5C(=CC=C6)N4C(=O)C3=CC=C2

> <PUBCHEM_CACTVS_TPSA>
32.7

> <PUBCHEM_MONOISOTOPIC_WEIGHT>
320.094963011

> <PUBCHEM_TOTAL_CHARGE>
0

> <PUBCHEM_HEAVY_ATOM_COUNT>
25

> <PUBCHEM_ATOM_DEF_STEREO_COUNT>
0

> <PUBCHEM_ATOM_UDEF_STEREO_COUNT>
0

> <PUBCHEM_BOND_DEF_STEREO_COUNT>
0

> <PUBCHEM_BOND_UDEF_STEREO_COUNT>
0

> <PUBCHEM_ISOTOPIC_ATOM_COUNT>
0

> <PUBCHEM_COMPONENT_COUNT>
1

> <PUBCHEM_CACTVS_TAUTO_COUNT>
-1

> <PUBCHEM_COORDINATE_TYPE>
1
5
255

> <PUBCHEM_BONDANNOTATIONS>
11  19  8
12  17  8
12  18  8
13  20  8
13  22  8
14  21  8
15  23  8
16  24  8
17  21  8
18  24  8
19  25  8
2  10  8
2  4  8
2  7  8
20  23  8
22  25  8
3  11  8
3  4  8
4  6  8
5  12  8
5  6  8
5  9  8
6  14  8
7  15  8
7  8  8
8  11  8
8  13  8
9  10  8
9  16  8

$$$$
