81856
  -OEChem-05122610002D

 48 47  0     0  0  0  0  0  0999 V2000
    3.4030    0.0670    0.0000 S   0  0  0  0  0  0  0  0  0  0  0  0
    6.0010    0.5670    0.0000 O   0  0  0  0  0  0  0  0  0  0  0  0
    6.8671   -0.9330    0.0000 O   0  0  0  0  0  0  0  0  0  0  0  0
    2.5369   -0.4330    0.0000 O   0  0  0  0  0  0  0  0  0  0  0  0
    2.9030    0.9330    0.0000 O   0  0  0  0  0  0  0  0  0  0  0  0
    3.9030   -0.7990    0.0000 O   0  0  0  0  0  0  0  0  0  0  0  0
   11.1972    0.5670    0.0000 C   0  0  0  0  0  0  0  0  0  0  0  0
   12.0632    0.0670    0.0000 C   0  0  0  0  0  0  0  0  0  0  0  0
   10.3312    0.0670    0.0000 C   0  0  0  0  0  0  0  0  0  0  0  0
   12.9292    0.5670    0.0000 C   0  0  0  0  0  0  0  0  0  0  0  0
   13.7953    0.0670    0.0000 C   0  0  0  0  0  0  0  0  0  0  0  0
    9.4651    0.5670    0.0000 C   0  0  0  0  0  0  0  0  0  0  0  0
   14.6613    0.5670    0.0000 C   0  0  0  0  0  0  0  0  0  0  0  0
    8.5991    0.0670    0.0000 C   0  0  0  0  0  0  0  0  0  0  0  0
   15.5273    0.0670    0.0000 C   0  0  0  0  0  0  0  0  0  0  0  0
    7.7331    0.5670    0.0000 C   0  0  0  0  0  0  0  0  0  0  0  0
   16.3933    0.5670    0.0000 C   0  0  0  0  0  0  0  0  0  0  0  0
    6.8671    0.0670    0.0000 C   0  0  0  0  0  0  0  0  0  0  0  0
    5.1350    0.0670    0.0000 C   0  0  0  0  0  0  0  0  0  0  0  0
    4.2690    0.5670    0.0000 C   0  0  0  0  0  0  0  0  0  0  0  0
   11.5957    1.0419    0.0000 H   0  0  0  0  0  0  0  0  0  0  0  0
   10.7987    1.0419    0.0000 H   0  0  0  0  0  0  0  0  0  0  0  0
   11.6647   -0.4080    0.0000 H   0  0  0  0  0  0  0  0  0  0  0  0
   12.4617   -0.4080    0.0000 H   0  0  0  0  0  0  0  0  0  0  0  0
    9.9326   -0.4080    0.0000 H   0  0  0  0  0  0  0  0  0  0  0  0
   10.7297   -0.4080    0.0000 H   0  0  0  0  0  0  0  0  0  0  0  0
   13.3278    1.0419    0.0000 H   0  0  0  0  0  0  0  0  0  0  0  0
   12.5307    1.0419    0.0000 H   0  0  0  0  0  0  0  0  0  0  0  0
   13.3967   -0.4080    0.0000 H   0  0  0  0  0  0  0  0  0  0  0  0
   14.1938   -0.4080    0.0000 H   0  0  0  0  0  0  0  0  0  0  0  0
    9.8637    1.0419    0.0000 H   0  0  0  0  0  0  0  0  0  0  0  0
    9.0666    1.0419    0.0000 H   0  0  0  0  0  0  0  0  0  0  0  0
   15.0598    1.0419    0.0000 H   0  0  0  0  0  0  0  0  0  0  0  0
   14.2628    1.0419    0.0000 H   0  0  0  0  0  0  0  0  0  0  0  0
    8.2006   -0.4080    0.0000 H   0  0  0  0  0  0  0  0  0  0  0  0
    8.9976   -0.4080    0.0000 H   0  0  0  0  0  0  0  0  0  0  0  0
   15.1288   -0.4080    0.0000 H   0  0  0  0  0  0  0  0  0  0  0  0
   15.9258   -0.4080    0.0000 H   0  0  0  0  0  0  0  0  0  0  0  0
    8.1316    1.0419    0.0000 H   0  0  0  0  0  0  0  0  0  0  0  0
    7.3346    1.0419    0.0000 H   0  0  0  0  0  0  0  0  0  0  0  0
   16.7033    0.0301    0.0000 H   0  0  0  0  0  0  0  0  0  0  0  0
   16.9303    0.8770    0.0000 H   0  0  0  0  0  0  0  0  0  0  0  0
   16.0833    1.1039    0.0000 H   0  0  0  0  0  0  0  0  0  0  0  0
    4.7365   -0.4080    0.0000 H   0  0  0  0  0  0  0  0  0  0  0  0
    5.5335   -0.4080    0.0000 H   0  0  0  0  0  0  0  0  0  0  0  0
    4.6675    1.0419    0.0000 H   0  0  0  0  0  0  0  0  0  0  0  0
    3.8705    1.0419    0.0000 H   0  0  0  0  0  0  0  0  0  0  0  0
    2.0000   -0.1230    0.0000 H   0  0  0  0  0  0  0  0  0  0  0  0
  1  4  1  0  0  0  0
  1  5  2  0  0  0  0
  1  6  2  0  0  0  0
  1 20  1  0  0  0  0
  2 18  1  0  0  0  0
  2 19  1  0  0  0  0
  3 18  2  0  0  0  0
  4 48  1  0  0  0  0
  7  8  1  0  0  0  0
  7  9  1  0  0  0  0
  7 21  1  0  0  0  0
  7 22  1  0  0  0  0
  8 10  1  0  0  0  0
  8 23  1  0  0  0  0
  8 24  1  0  0  0  0
  9 12  1  0  0  0  0
  9 25  1  0  0  0  0
  9 26  1  0  0  0  0
 10 11  1  0  0  0  0
 10 27  1  0  0  0  0
 10 28  1  0  0  0  0
 11 13  1  0  0  0  0
 11 29  1  0  0  0  0
 11 30  1  0  0  0  0
 12 14  1  0  0  0  0
 12 31  1  0  0  0  0
 12 32  1  0  0  0  0
 13 15  1  0  0  0  0
 13 33  1  0  0  0  0
 13 34  1  0  0  0  0
 14 16  1  0  0  0  0
 14 35  1  0  0  0  0
 14 36  1  0  0  0  0
 15 17  1  0  0  0  0
 15 37  1  0  0  0  0
 15 38  1  0  0  0  0
 16 18  1  0  0  0  0
 16 39  1  0  0  0  0
 16 40  1  0  0  0  0
 17 41  1  0  0  0  0
 17 42  1  0  0  0  0
 17 43  1  0  0  0  0
 19 20  1  0  0  0  0
 19 44  1  0  0  0  0
 19 45  1  0  0  0  0
 20 46  1  0  0  0  0
 20 47  1  0  0  0  0
M  END
> <PUBCHEM_COMPOUND_CID>
81856

> <PUBCHEM_COMPOUND_CANONICALIZED>
1

> <PUBCHEM_CACTVS_COMPLEXITY>
332

> <PUBCHEM_CACTVS_HBOND_ACCEPTOR>
5

> <PUBCHEM_CACTVS_HBOND_DONOR>
1

> <PUBCHEM_CACTVS_ROTATABLE_BOND>
14

> <PUBCHEM_CACTVS_SUBSKEYS>
AAADceBwOABAAAAAAAAAAAAAAAAAAAAAAAAAAAAAAAAAAAAAAAAAGgQACAAACACkwAKCCAAABIIIAACQCHBAAAAAAAAAAAEAAAAAABIAAAACAAAEAAAAAAGIyKCAAAAAAAAAAAAAAAAAAAAAAAAAAAAAAA==

> <PUBCHEM_IUPAC_OPENEYE_NAME>
2-dodecanoyloxyethanesulfonic acid

> <PUBCHEM_IUPAC_CAS_NAME>
2-(1-oxododecoxy)ethanesulfonic acid

> <PUBCHEM_IUPAC_NAME_MARKUP>
2-dodecanoyloxyethanesulfonic acid

> <PUBCHEM_IUPAC_NAME>
2-dodecanoyloxyethanesulfonic acid

> <PUBCHEM_IUPAC_SYSTEMATIC_NAME>
2-dodecanoyloxyethanesulfonic acid

> <PUBCHEM_IUPAC_TRADITIONAL_NAME>
2-lauroyloxyethanesulfonic acid

> <PUBCHEM_IUPAC_INCHI>
InChI=1S/C14H28O5S/c1-2-3-4-5-6-7-8-9-10-11-14(15)19-12-13-20(16,17)18/h2-13H2,1H3,(H,16,17,18)

> <PUBCHEM_IUPAC_INCHIKEY>
UXPUMTCLHVWFKC-UHFFFAOYSA-N

> <PUBCHEM_XLOGP3_AA>
4.2

> <PUBCHEM_EXACT_MASS>
308.16574516

> <PUBCHEM_MOLECULAR_FORMULA>
C14H28O5S

> <PUBCHEM_MOLECULAR_WEIGHT>
308.44

> <PUBCHEM_SMILES>
CCCCCCCCCCCC(=O)OCCS(=O)(=O)O

> <PUBCHEM_CONNECTIVITY_SMILES>
CCCCCCCCCCCC(=O)OCCS(=O)(=O)O

> <PUBCHEM_CACTVS_TPSA>
89.1

> <PUBCHEM_MONOISOTOPIC_WEIGHT>
308.16574516

> <PUBCHEM_TOTAL_CHARGE>
0

> <PUBCHEM_HEAVY_ATOM_COUNT>
20

> <PUBCHEM_ATOM_DEF_STEREO_COUNT>
0

> <PUBCHEM_ATOM_UDEF_STEREO_COUNT>
0

> <PUBCHEM_BOND_DEF_STEREO_COUNT>
0

> <PUBCHEM_BOND_UDEF_STEREO_COUNT>
0

> <PUBCHEM_ISOTOPIC_ATOM_COUNT>
0

> <PUBCHEM_COMPONENT_COUNT>
1

> <PUBCHEM_CACTVS_TAUTO_COUNT>
-1

> <PUBCHEM_COORDINATE_TYPE>
1
5
255

$$$$
