8351
  -OEChem-05122609452D

 28 29  0     0  0  0  0  0  0999 V2000
    4.6783   -0.8053    0.0000 N   0  0  0  0  0  0  0  0  0  0  0  0
    4.6783    0.8042    0.0000 C   0  0  0  0  0  0  0  0  0  0  0  0
    3.7321    0.4995    0.0000 C   0  0  0  0  0  0  0  0  0  0  0  0
    5.2619   -0.0005    0.0000 C   0  0  0  0  0  0  0  0  0  0  0  0
    3.7321   -0.5005    0.0000 C   0  0  0  0  0  0  0  0  0  0  0  0
    5.4883    1.3906    0.0000 C   0  0  0  0  0  0  0  0  0  0  0  0
    4.3709    1.7558    0.0000 C   0  0  0  0  0  0  0  0  0  0  0  0
    2.8660    0.9995    0.0000 C   0  0  0  0  0  0  0  0  0  0  0  0
    2.8660   -1.0005    0.0000 C   0  0  0  0  0  0  0  0  0  0  0  0
    4.9889   -1.7558    0.0000 C   0  0  0  0  0  0  0  0  0  0  0  0
    6.2619   -0.0005    0.0000 C   0  0  0  0  0  0  0  0  0  0  0  0
    2.0000    0.4995    0.0000 C   0  0  0  0  0  0  0  0  0  0  0  0
    2.0000   -0.5005    0.0000 C   0  0  0  0  0  0  0  0  0  0  0  0
    5.8519    0.8884    0.0000 H   0  0  0  0  0  0  0  0  0  0  0  0
    5.9905    1.7541    0.0000 H   0  0  0  0  0  0  0  0  0  0  0  0
    5.1248    1.8928    0.0000 H   0  0  0  0  0  0  0  0  0  0  0  0
    4.9609    1.9464    0.0000 H   0  0  0  0  0  0  0  0  0  0  0  0
    4.1803    2.3458    0.0000 H   0  0  0  0  0  0  0  0  0  0  0  0
    3.7809    1.5652    0.0000 H   0  0  0  0  0  0  0  0  0  0  0  0
    2.8660    1.6195    0.0000 H   0  0  0  0  0  0  0  0  0  0  0  0
    2.8660   -1.6205    0.0000 H   0  0  0  0  0  0  0  0  0  0  0  0
    4.3996   -1.9484    0.0000 H   0  0  0  0  0  0  0  0  0  0  0  0
    5.1815   -2.3451    0.0000 H   0  0  0  0  0  0  0  0  0  0  0  0
    5.5783   -1.5632    0.0000 H   0  0  0  0  0  0  0  0  0  0  0  0
    6.5719   -0.5375    0.0000 H   0  0  0  0  0  0  0  0  0  0  0  0
    6.5719    0.5364    0.0000 H   0  0  0  0  0  0  0  0  0  0  0  0
    1.4631    0.8095    0.0000 H   0  0  0  0  0  0  0  0  0  0  0  0
    1.4631   -0.8105    0.0000 H   0  0  0  0  0  0  0  0  0  0  0  0
  1  4  1  0  0  0  0
  1  5  1  0  0  0  0
  1 10  1  0  0  0  0
  2  3  1  0  0  0  0
  2  4  1  0  0  0  0
  2  6  1  0  0  0  0
  2  7  1  0  0  0  0
  3  5  1  0  0  0  0
  3  8  2  0  0  0  0
  4 11  2  0  0  0  0
  5  9  2  0  0  0  0
  6 14  1  0  0  0  0
  6 15  1  0  0  0  0
  6 16  1  0  0  0  0
  7 17  1  0  0  0  0
  7 18  1  0  0  0  0
  7 19  1  0  0  0  0
  8 12  1  0  0  0  0
  8 20  1  0  0  0  0
  9 13  1  0  0  0  0
  9 21  1  0  0  0  0
 10 22  1  0  0  0  0
 10 23  1  0  0  0  0
 10 24  1  0  0  0  0
 11 25  1  0  0  0  0
 11 26  1  0  0  0  0
 12 13  2  0  0  0  0
 12 27  1  0  0  0  0
 13 28  1  0  0  0  0
M  END
> <PUBCHEM_COMPOUND_CID>
8351

> <PUBCHEM_COMPOUND_CANONICALIZED>
1

> <PUBCHEM_CACTVS_COMPLEXITY>
229

> <PUBCHEM_CACTVS_HBOND_ACCEPTOR>
1

> <PUBCHEM_CACTVS_HBOND_DONOR>
0

> <PUBCHEM_CACTVS_ROTATABLE_BOND>
0

> <PUBCHEM_CACTVS_SUBSKEYS>
AAADccByAAAAAAAAAAAAAAAAAAAAAWAAAAAwAAAAAAAAAFgBAAAAHAAAAAAADgiBGAQywIMAAACAAiRCQACCAAAhAgAIiAAIZIgIICLAkZGEIAhggADIyAcQgMAPgAAAAAACAAAAAAAAAAQAAAAAAAAAAA==

> <PUBCHEM_IUPAC_OPENEYE_NAME>
1,3,3-trimethyl-2-methylene-indoline

> <PUBCHEM_IUPAC_CAS_NAME>
1,3,3-trimethyl-2-methyleneindole

> <PUBCHEM_IUPAC_NAME_MARKUP>
1,3,3-trimethyl-2-methylideneindole

> <PUBCHEM_IUPAC_NAME>
1,3,3-trimethyl-2-methylideneindole

> <PUBCHEM_IUPAC_SYSTEMATIC_NAME>
1,3,3-trimethyl-2-methylidene-indole

> <PUBCHEM_IUPAC_TRADITIONAL_NAME>
1,3,3-trimethyl-2-methylene-indoline

> <PUBCHEM_IUPAC_INCHI>
InChI=1S/C12H15N/c1-9-12(2,3)10-7-5-6-8-11(10)13(9)4/h5-8H,1H2,2-4H3

> <PUBCHEM_IUPAC_INCHIKEY>
ZTUKGBOUHWYFGC-UHFFFAOYSA-N

> <PUBCHEM_XLOGP3_AA>
3.4

> <PUBCHEM_EXACT_MASS>
173.120449483

> <PUBCHEM_MOLECULAR_FORMULA>
C12H15N

> <PUBCHEM_MOLECULAR_WEIGHT>
173.25

> <PUBCHEM_SMILES>
CC1(C(=C)N(C2=CC=CC=C21)C)C

> <PUBCHEM_CONNECTIVITY_SMILES>
CC1(C(=C)N(C2=CC=CC=C21)C)C

> <PUBCHEM_CACTVS_TPSA>
3.2

> <PUBCHEM_MONOISOTOPIC_WEIGHT>
173.120449483

> <PUBCHEM_TOTAL_CHARGE>
0

> <PUBCHEM_HEAVY_ATOM_COUNT>
13

> <PUBCHEM_ATOM_DEF_STEREO_COUNT>
0

> <PUBCHEM_ATOM_UDEF_STEREO_COUNT>
0

> <PUBCHEM_BOND_DEF_STEREO_COUNT>
0

> <PUBCHEM_BOND_UDEF_STEREO_COUNT>
0

> <PUBCHEM_ISOTOPIC_ATOM_COUNT>
0

> <PUBCHEM_COMPONENT_COUNT>
1

> <PUBCHEM_CACTVS_TAUTO_COUNT>
-1

> <PUBCHEM_COORDINATE_TYPE>
1
5
255

> <PUBCHEM_BONDANNOTATIONS>
12  13  8
3  5  8
3  8  8
5  9  8
8  12  8
9  13  8

$$$$
