84152
  -OEChem-05122608302D

 21 20  0     0  0  0  0  0  0999 V2000
    2.5369   -0.3170    0.0000 O   0  0  0  0  0  0  0  0  0  0  0  0
    6.0010   -0.3170    0.0000 O   0  0  0  0  0  0  0  0  0  0  0  0
    5.1350    1.1830    0.0000 O   0  0  0  0  0  0  0  0  0  0  0  0
    4.2690   -0.3170    0.0000 C   0  0  0  0  0  0  0  0  0  0  0  0
    3.4030   -0.8170    0.0000 C   0  0  0  0  0  0  0  0  0  0  0  0
    3.7690    0.5490    0.0000 C   0  0  0  0  0  0  0  0  0  0  0  0
    4.7690   -1.1830    0.0000 C   0  0  0  0  0  0  0  0  0  0  0  0
    5.1350    0.1830    0.0000 C   0  0  0  0  0  0  0  0  0  0  0  0
    6.8671    0.1830    0.0000 C   0  0  0  0  0  0  0  0  0  0  0  0
    3.0044   -1.2919    0.0000 H   0  0  0  0  0  0  0  0  0  0  0  0
    3.8015   -1.2919    0.0000 H   0  0  0  0  0  0  0  0  0  0  0  0
    4.3059    0.8590    0.0000 H   0  0  0  0  0  0  0  0  0  0  0  0
    3.4590    1.0860    0.0000 H   0  0  0  0  0  0  0  0  0  0  0  0
    3.2321    0.2390    0.0000 H   0  0  0  0  0  0  0  0  0  0  0  0
    4.2321   -1.4930    0.0000 H   0  0  0  0  0  0  0  0  0  0  0  0
    5.0790   -1.7200    0.0000 H   0  0  0  0  0  0  0  0  0  0  0  0
    5.3059   -0.8730    0.0000 H   0  0  0  0  0  0  0  0  0  0  0  0
    2.0000   -0.6270    0.0000 H   0  0  0  0  0  0  0  0  0  0  0  0
    7.1771   -0.3539    0.0000 H   0  0  0  0  0  0  0  0  0  0  0  0
    7.4040    0.4930    0.0000 H   0  0  0  0  0  0  0  0  0  0  0  0
    6.5571    0.7199    0.0000 H   0  0  0  0  0  0  0  0  0  0  0  0
  1  5  1  0  0  0  0
  1 18  1  0  0  0  0
  2  8  1  0  0  0  0
  2  9  1  0  0  0  0
  3  8  2  0  0  0  0
  4  5  1  0  0  0  0
  4  6  1  0  0  0  0
  4  7  1  0  0  0  0
  4  8  1  0  0  0  0
  5 10  1  0  0  0  0
  5 11  1  0  0  0  0
  6 12  1  0  0  0  0
  6 13  1  0  0  0  0
  6 14  1  0  0  0  0
  7 15  1  0  0  0  0
  7 16  1  0  0  0  0
  7 17  1  0  0  0  0
  9 19  1  0  0  0  0
  9 20  1  0  0  0  0
  9 21  1  0  0  0  0
M  END
> <PUBCHEM_COMPOUND_CID>
84152

> <PUBCHEM_COMPOUND_CANONICALIZED>
1

> <PUBCHEM_CACTVS_COMPLEXITY>
107

> <PUBCHEM_CACTVS_HBOND_ACCEPTOR>
3

> <PUBCHEM_CACTVS_HBOND_DONOR>
1

> <PUBCHEM_CACTVS_ROTATABLE_BOND>
3

> <PUBCHEM_CACTVS_SUBSKEYS>
AAADccBgMAAAAAAAAAAAAAAAAAAAAAAAAAAAAAAAAAAAAAAAAAAAGgAACAAADgCggAICCAAABgAIAACQCAAAAAAAAAAAAAEAAAAAEAQAAAAAQAABIAAAAAAAAAAAAAAAAAAAAAAAAAAAAAAAAAAAAAAAAA==

> <PUBCHEM_IUPAC_OPENEYE_NAME>
methyl 3-hydroxy-2,2-dimethyl-propanoate

> <PUBCHEM_IUPAC_CAS_NAME>
3-hydroxy-2,2-dimethylpropanoic acid methyl ester

> <PUBCHEM_IUPAC_NAME_MARKUP>
methyl 3-hydroxy-2,2-dimethylpropanoate

> <PUBCHEM_IUPAC_NAME>
methyl 3-hydroxy-2,2-dimethylpropanoate

> <PUBCHEM_IUPAC_SYSTEMATIC_NAME>
methyl 2,2-dimethyl-3-oxidanyl-propanoate

> <PUBCHEM_IUPAC_TRADITIONAL_NAME>
3-hydroxy-2,2-dimethyl-propionic acid methyl ester

> <PUBCHEM_IUPAC_INCHI>
InChI=1S/C6H12O3/c1-6(2,4-7)5(8)9-3/h7H,4H2,1-3H3

> <PUBCHEM_IUPAC_INCHIKEY>
KJRFTNVYOAGTHK-UHFFFAOYSA-N

> <PUBCHEM_XLOGP3_AA>
0.3

> <PUBCHEM_EXACT_MASS>
132.078644241

> <PUBCHEM_MOLECULAR_FORMULA>
C6H12O3

> <PUBCHEM_MOLECULAR_WEIGHT>
132.16

> <PUBCHEM_SMILES>
CC(C)(CO)C(=O)OC

> <PUBCHEM_CONNECTIVITY_SMILES>
CC(C)(CO)C(=O)OC

> <PUBCHEM_CACTVS_TPSA>
46.5

> <PUBCHEM_MONOISOTOPIC_WEIGHT>
132.078644241

> <PUBCHEM_TOTAL_CHARGE>
0

> <PUBCHEM_HEAVY_ATOM_COUNT>
9

> <PUBCHEM_ATOM_DEF_STEREO_COUNT>
0

> <PUBCHEM_ATOM_UDEF_STEREO_COUNT>
0

> <PUBCHEM_BOND_DEF_STEREO_COUNT>
0

> <PUBCHEM_BOND_UDEF_STEREO_COUNT>
0

> <PUBCHEM_ISOTOPIC_ATOM_COUNT>
0

> <PUBCHEM_COMPONENT_COUNT>
1

> <PUBCHEM_CACTVS_TAUTO_COUNT>
-1

> <PUBCHEM_COORDINATE_TYPE>
1
5
255

$$$$
