84400
  -OEChem-05122609442D

 23 24  0     0  0  0  0  0  0999 V2000
    2.0000    1.0000    0.0000 N   0  0  0  0  0  0  0  0  0  0  0  0
    4.0000    1.0000    0.0000 C   0  0  0  0  0  0  0  0  0  0  0  0
    5.0000    1.0000    0.0000 C   0  0  0  0  0  0  0  0  0  0  0  0
    4.0000    2.0000    0.0000 C   0  0  0  0  0  0  0  0  0  0  0  0
    5.0000    2.0000    0.0000 C   0  0  0  0  0  0  0  0  0  0  0  0
    4.0000   -0.0000    0.0000 C   0  0  0  0  0  0  0  0  0  0  0  0
    3.0000    1.0000    0.0000 C   0  0  0  0  0  0  0  0  0  0  0  0
    4.8660   -0.5000    0.0000 C   0  0  0  0  0  0  0  0  0  0  0  0
    3.1340   -0.5000    0.0000 C   0  0  0  0  0  0  0  0  0  0  0  0
    4.8660   -1.5000    0.0000 C   0  0  0  0  0  0  0  0  0  0  0  0
    3.1340   -1.5000    0.0000 C   0  0  0  0  0  0  0  0  0  0  0  0
    4.0000   -2.0000    0.0000 C   0  0  0  0  0  0  0  0  0  0  0  0
    5.0000    0.3800    0.0000 H   0  0  0  0  0  0  0  0  0  0  0  0
    5.6200    1.0000    0.0000 H   0  0  0  0  0  0  0  0  0  0  0  0
    4.0000    2.6200    0.0000 H   0  0  0  0  0  0  0  0  0  0  0  0
    3.3800    2.0000    0.0000 H   0  0  0  0  0  0  0  0  0  0  0  0
    5.6200    2.0000    0.0000 H   0  0  0  0  0  0  0  0  0  0  0  0
    5.0000    2.6200    0.0000 H   0  0  0  0  0  0  0  0  0  0  0  0
    5.4030   -0.1900    0.0000 H   0  0  0  0  0  0  0  0  0  0  0  0
    2.5970   -0.1900    0.0000 H   0  0  0  0  0  0  0  0  0  0  0  0
    5.4030   -1.8100    0.0000 H   0  0  0  0  0  0  0  0  0  0  0  0
    2.5970   -1.8100    0.0000 H   0  0  0  0  0  0  0  0  0  0  0  0
    4.0000   -2.6200    0.0000 H   0  0  0  0  0  0  0  0  0  0  0  0
  1  7  3  0  0  0  0
  2  3  1  0  0  0  0
  2  4  1  0  0  0  0
  2  6  1  0  0  0  0
  2  7  1  0  0  0  0
  3  5  1  0  0  0  0
  3 13  1  0  0  0  0
  3 14  1  0  0  0  0
  4  5  1  0  0  0  0
  4 15  1  0  0  0  0
  4 16  1  0  0  0  0
  5 17  1  0  0  0  0
  5 18  1  0  0  0  0
  6  8  2  0  0  0  0
  6  9  1  0  0  0  0
  8 10  1  0  0  0  0
  8 19  1  0  0  0  0
  9 11  2  0  0  0  0
  9 20  1  0  0  0  0
 10 12  2  0  0  0  0
 10 21  1  0  0  0  0
 11 12  1  0  0  0  0
 11 22  1  0  0  0  0
 12 23  1  0  0  0  0
M  END
> <PUBCHEM_COMPOUND_CID>
84400

> <PUBCHEM_COMPOUND_CANONICALIZED>
1

> <PUBCHEM_CACTVS_COMPLEXITY>
200

> <PUBCHEM_CACTVS_HBOND_ACCEPTOR>
1

> <PUBCHEM_CACTVS_HBOND_DONOR>
0

> <PUBCHEM_CACTVS_ROTATABLE_BOND>
1

> <PUBCHEM_CACTVS_SUBSKEYS>
AAADccByAAAAAAAAAAAAAAAAAABgAAAAAAAwAAAAAAAAAAABAAAAHAAAAAAADgCBGAAwAIAAAACQBiBCAAACAAAgAAAIiAAAAIgIoCKAERCAIAAggAAIiA8AgMAPgAAAAAAAAAAAAAAAAAAAAAAAAAAAAA==

> <PUBCHEM_IUPAC_OPENEYE_NAME>
1-phenylcyclobutanecarbonitrile

> <PUBCHEM_IUPAC_CAS_NAME>
1-phenyl-1-cyclobutanecarbonitrile

> <PUBCHEM_IUPAC_NAME_MARKUP>
1-phenylcyclobutane-1-carbonitrile

> <PUBCHEM_IUPAC_NAME>
1-phenylcyclobutane-1-carbonitrile

> <PUBCHEM_IUPAC_SYSTEMATIC_NAME>
1-phenylcyclobutane-1-carbonitrile

> <PUBCHEM_IUPAC_TRADITIONAL_NAME>
1-phenylcyclobutanecarbonitrile

> <PUBCHEM_IUPAC_INCHI>
InChI=1S/C11H11N/c12-9-11(7-4-8-11)10-5-2-1-3-6-10/h1-3,5-6H,4,7-8H2

> <PUBCHEM_IUPAC_INCHIKEY>
DHIDUDPFTZJPCQ-UHFFFAOYSA-N

> <PUBCHEM_XLOGP3_AA>
2.5

> <PUBCHEM_EXACT_MASS>
157.089149355

> <PUBCHEM_MOLECULAR_FORMULA>
C11H11N

> <PUBCHEM_MOLECULAR_WEIGHT>
157.21

> <PUBCHEM_SMILES>
C1CC(C1)(C#N)C2=CC=CC=C2

> <PUBCHEM_CONNECTIVITY_SMILES>
C1CC(C1)(C#N)C2=CC=CC=C2

> <PUBCHEM_CACTVS_TPSA>
23.8

> <PUBCHEM_MONOISOTOPIC_WEIGHT>
157.089149355

> <PUBCHEM_TOTAL_CHARGE>
0

> <PUBCHEM_HEAVY_ATOM_COUNT>
12

> <PUBCHEM_ATOM_DEF_STEREO_COUNT>
0

> <PUBCHEM_ATOM_UDEF_STEREO_COUNT>
0

> <PUBCHEM_BOND_DEF_STEREO_COUNT>
0

> <PUBCHEM_BOND_UDEF_STEREO_COUNT>
0

> <PUBCHEM_ISOTOPIC_ATOM_COUNT>
0

> <PUBCHEM_COMPONENT_COUNT>
1

> <PUBCHEM_CACTVS_TAUTO_COUNT>
-1

> <PUBCHEM_COORDINATE_TYPE>
1
5
255

> <PUBCHEM_BONDANNOTATIONS>
10  12  8
11  12  8
6  8  8
6  9  8
8  10  8
9  11  8

$$$$
