84802
  -OEChem-05122610042D

 45 46  0     1  0  0  0  0  0999 V2000
    3.7891   -3.4571    0.0000 S   0  0  0  0  0  0  0  0  0  0  0  0
    5.4641    4.6307    0.0000 O   0  0  0  0  0  0  0  0  0  0  0  0
    4.5981    6.1307    0.0000 O   0  0  0  0  0  0  0  0  0  0  0  0
    3.9170   -6.1307    0.0000 O   0  5  0  0  0  0  0  0  0  0  0  0
    2.5158   -5.1126    0.0000 O   0  0  0  0  0  0  0  0  0  0  0  0
    3.7321    2.6307    0.0000 N   0  0  3  0  0  0  0  0  0  0  0  0
    3.7321   -1.3693    0.0000 N   0  0  0  0  0  0  0  0  0  0  0  0
    4.5981   -1.8693    0.0000 N   0  0  0  0  0  0  0  0  0  0  0  0
    5.4071   -3.4571    0.0000 N   0  0  0  0  0  0  0  0  0  0  0  0
    3.5103   -5.2172    0.0000 N   0  3  0  0  0  0  0  0  0  0  0  0
    4.5981    3.1307    0.0000 C   0  0  0  0  0  0  0  0  0  0  0  0
    3.7321    1.6307    0.0000 C   0  0  0  0  0  0  0  0  0  0  0  0
    2.8660    3.1307    0.0000 C   0  0  0  0  0  0  0  0  0  0  0  0
    4.5981    4.1307    0.0000 C   0  0  0  0  0  0  0  0  0  0  0  0
    2.8660    1.1307    0.0000 C   0  0  0  0  0  0  0  0  0  0  0  0
    4.5981    1.1307    0.0000 C   0  0  0  0  0  0  0  0  0  0  0  0
    2.8660    0.1307    0.0000 C   0  0  0  0  0  0  0  0  0  0  0  0
    2.8660    4.1307    0.0000 C   0  0  0  0  0  0  0  0  0  0  0  0
    3.7321   -0.3693    0.0000 C   0  0  0  0  0  0  0  0  0  0  0  0
    4.5981    0.1307    0.0000 C   0  0  0  0  0  0  0  0  0  0  0  0
    2.0000   -0.3693    0.0000 C   0  0  0  0  0  0  0  0  0  0  0  0
    5.4641    5.6307    0.0000 C   0  0  0  0  0  0  0  0  0  0  0  0
    6.3301    6.1307    0.0000 C   0  0  0  0  0  0  0  0  0  0  0  0
    4.5981   -2.8693    0.0000 C   0  0  0  0  0  0  0  0  0  0  0  0
    4.0981   -4.4081    0.0000 C   0  0  0  0  0  0  0  0  0  0  0  0
    5.0981   -4.4081    0.0000 C   0  0  0  0  0  0  0  0  0  0  0  0
    4.8101    2.5481    0.0000 H   0  0  0  0  0  0  0  0  0  0  0  0
    5.2087    3.2384    0.0000 H   0  0  0  0  0  0  0  0  0  0  0  0
    2.2554    3.2384    0.0000 H   0  0  0  0  0  0  0  0  0  0  0  0
    2.6540    2.5481    0.0000 H   0  0  0  0  0  0  0  0  0  0  0  0
    4.3860    4.7133    0.0000 H   0  0  0  0  0  0  0  0  0  0  0  0
    3.9875    4.0230    0.0000 H   0  0  0  0  0  0  0  0  0  0  0  0
    2.3291    1.4407    0.0000 H   0  0  0  0  0  0  0  0  0  0  0  0
    5.1350    1.4407    0.0000 H   0  0  0  0  0  0  0  0  0  0  0  0
    3.4860    4.1307    0.0000 H   0  0  0  0  0  0  0  0  0  0  0  0
    2.8660    4.7507    0.0000 H   0  0  0  0  0  0  0  0  0  0  0  0
    2.2460    4.1307    0.0000 H   0  0  0  0  0  0  0  0  0  0  0  0
    5.1350   -0.1793    0.0000 H   0  0  0  0  0  0  0  0  0  0  0  0
    1.6900    0.1676    0.0000 H   0  0  0  0  0  0  0  0  0  0  0  0
    1.4631   -0.6793    0.0000 H   0  0  0  0  0  0  0  0  0  0  0  0
    2.3100   -0.9062    0.0000 H   0  0  0  0  0  0  0  0  0  0  0  0
    6.6401    5.5938    0.0000 H   0  0  0  0  0  0  0  0  0  0  0  0
    6.8671    6.4407    0.0000 H   0  0  0  0  0  0  0  0  0  0  0  0
    6.0201    6.6676    0.0000 H   0  0  0  0  0  0  0  0  0  0  0  0
    5.4625   -4.9097    0.0000 H   0  0  0  0  0  0  0  0  0  0  0  0
  1 24  1  0  0  0  0
  1 25  1  0  0  0  0
  2 14  1  0  0  0  0
  2 22  1  0  0  0  0
  3 22  2  0  0  0  0
  4 10  1  0  0  0  0
  5 10  2  0  0  0  0
  6 11  1  0  0  0  0
  6 12  1  0  0  0  0
  6 13  1  0  0  0  0
  7  8  2  0  0  0  0
  7 19  1  0  0  0  0
  8 24  1  0  0  0  0
  9 24  2  0  0  0  0
  9 26  1  0  0  0  0
 10 25  1  0  0  0  0
 11 14  1  0  0  0  0
 11 27  1  0  0  0  0
 11 28  1  0  0  0  0
 12 15  2  0  0  0  0
 12 16  1  0  0  0  0
 13 18  1  0  0  0  0
 13 29  1  0  0  0  0
 13 30  1  0  0  0  0
 14 31  1  0  0  0  0
 14 32  1  0  0  0  0
 15 17  1  0  0  0  0
 15 33  1  0  0  0  0
 16 20  2  0  0  0  0
 16 34  1  0  0  0  0
 17 19  2  0  0  0  0
 17 21  1  0  0  0  0
 18 35  1  0  0  0  0
 18 36  1  0  0  0  0
 18 37  1  0  0  0  0
 19 20  1  0  0  0  0
 20 38  1  0  0  0  0
 21 39  1  0  0  0  0
 21 40  1  0  0  0  0
 21 41  1  0  0  0  0
 22 23  1  0  0  0  0
 23 42  1  0  0  0  0
 23 43  1  0  0  0  0
 23 44  1  0  0  0  0
 25 26  2  0  0  0  0
 26 45  1  0  0  0  0
M  CHG  2   4  -1  10   1
M  END
> <PUBCHEM_COMPOUND_CID>
84802

> <PUBCHEM_COMPOUND_CANONICALIZED>
1

> <PUBCHEM_CACTVS_COMPLEXITY>
515

> <PUBCHEM_CACTVS_HBOND_ACCEPTOR>
9

> <PUBCHEM_CACTVS_HBOND_DONOR>
0

> <PUBCHEM_CACTVS_ROTATABLE_BOND>
8

> <PUBCHEM_CACTVS_SUBSKEYS>
AAADceB7uABAAAAAAAAAAAAAAAAAAWAAAAAwAAAAAAAAAAABwAAAHgQMAAAADAjh2gY/2ZMYVAivAjT3bwCC8KlxGjhoyAwIdIqKYCLAkZGXIAhggILYyCcQgAAOAACAQAACAAAAAQCAAAQAAAAAAAAAAA==

> <PUBCHEM_IUPAC_OPENEYE_NAME>
2-[N-ethyl-3-methyl-4-(5-nitrothiazol-2-yl)azo-anilino]ethyl acetate

> <PUBCHEM_IUPAC_CAS_NAME>
acetic acid 2-[N-ethyl-3-methyl-4-[(5-nitro-2-thiazolyl)azo]anilino]ethyl ester

> <PUBCHEM_IUPAC_NAME_MARKUP>
2-[<I>N</I>-ethyl-3-methyl-4-[(5-nitro-1,3-thiazol-2-yl)diazenyl]anilino]ethyl acetate

> <PUBCHEM_IUPAC_NAME>
2-[N-ethyl-3-methyl-4-[(5-nitro-1,3-thiazol-2-yl)diazenyl]anilino]ethyl acetate

> <PUBCHEM_IUPAC_SYSTEMATIC_NAME>
2-[ethyl-[3-methyl-4-[(5-nitro-1,3-thiazol-2-yl)diazenyl]phenyl]amino]ethyl ethanoate

> <PUBCHEM_IUPAC_TRADITIONAL_NAME>
acetic acid 2-[N-ethyl-3-methyl-4-(5-nitrothiazol-2-yl)azo-anilino]ethyl ester

> <PUBCHEM_IUPAC_INCHI>
InChI=1S/C16H19N5O4S/c1-4-20(7-8-25-12(3)22)13-5-6-14(11(2)9-13)18-19-16-17-10-15(26-16)21(23)24/h5-6,9-10H,4,7-8H2,1-3H3

> <PUBCHEM_IUPAC_INCHIKEY>
HMAJVAFLGGPIPN-UHFFFAOYSA-N

> <PUBCHEM_XLOGP3_AA>
4

> <PUBCHEM_EXACT_MASS>
377.11577528

> <PUBCHEM_MOLECULAR_FORMULA>
C16H19N5O4S

> <PUBCHEM_MOLECULAR_WEIGHT>
377.4

> <PUBCHEM_SMILES>
CCN(CCOC(=O)C)C1=CC(=C(C=C1)N=NC2=NC=C(S2)[N+](=O)[O-])C

> <PUBCHEM_CONNECTIVITY_SMILES>
CCN(CCOC(=O)C)C1=CC(=C(C=C1)N=NC2=NC=C(S2)[N+](=O)[O-])C

> <PUBCHEM_CACTVS_TPSA>
141

> <PUBCHEM_MONOISOTOPIC_WEIGHT>
377.11577528

> <PUBCHEM_TOTAL_CHARGE>
0

> <PUBCHEM_HEAVY_ATOM_COUNT>
26

> <PUBCHEM_ATOM_DEF_STEREO_COUNT>
0

> <PUBCHEM_ATOM_UDEF_STEREO_COUNT>
0

> <PUBCHEM_BOND_DEF_STEREO_COUNT>
0

> <PUBCHEM_BOND_UDEF_STEREO_COUNT>
0

> <PUBCHEM_ISOTOPIC_ATOM_COUNT>
0

> <PUBCHEM_COMPONENT_COUNT>
1

> <PUBCHEM_CACTVS_TAUTO_COUNT>
-1

> <PUBCHEM_COORDINATE_TYPE>
1
5
255

> <PUBCHEM_BONDANNOTATIONS>
1  24  8
1  25  8
12  15  8
12  16  8
15  17  8
16  20  8
17  19  8
19  20  8
25  26  8
9  24  8
9  26  8

$$$$
