85623
  -OEChem-05122608412D

 16 15  0     0  0  0  0  0  0999 V2000
    2.8660    0.3170    0.0000 Si  0  0  0  0  0  0  0  0  0  0  0  0
    3.7320    0.8170    0.0000 O   0  0  0  0  0  0  0  0  0  0  0  0
    2.0000   -0.1830    0.0000 O   0  0  0  0  0  0  0  0  0  0  0  0
    2.3660    1.1830    0.0000 C   0  0  0  0  0  0  0  0  0  0  0  0
    4.5981    0.3170    0.0000 C   0  0  0  0  0  0  0  0  0  0  0  0
    2.0000   -1.1830    0.0000 C   0  0  0  0  0  0  0  0  0  0  0  0
    3.1760   -0.2199    0.0000 H   0  0  0  0  0  0  0  0  0  0  0  0
    2.9030    1.4930    0.0000 H   0  0  0  0  0  0  0  0  0  0  0  0
    2.0560    1.7200    0.0000 H   0  0  0  0  0  0  0  0  0  0  0  0
    1.8291    0.8730    0.0000 H   0  0  0  0  0  0  0  0  0  0  0  0
    4.2881   -0.2199    0.0000 H   0  0  0  0  0  0  0  0  0  0  0  0
    5.1350    0.0070    0.0000 H   0  0  0  0  0  0  0  0  0  0  0  0
    4.9081    0.8539    0.0000 H   0  0  0  0  0  0  0  0  0  0  0  0
    1.3800   -1.1830    0.0000 H   0  0  0  0  0  0  0  0  0  0  0  0
    2.0000   -1.8030    0.0000 H   0  0  0  0  0  0  0  0  0  0  0  0
    2.6200   -1.1830    0.0000 H   0  0  0  0  0  0  0  0  0  0  0  0
  1  2  1  0  0  0  0
  1  3  1  0  0  0  0
  1  4  1  0  0  0  0
  1  7  1  0  0  0  0
  2  5  1  0  0  0  0
  3  6  1  0  0  0  0
  4  8  1  0  0  0  0
  4  9  1  0  0  0  0
  4 10  1  0  0  0  0
  5 11  1  0  0  0  0
  5 12  1  0  0  0  0
  5 13  1  0  0  0  0
  6 14  1  0  0  0  0
  6 15  1  0  0  0  0
  6 16  1  0  0  0  0
M  END
> <PUBCHEM_COMPOUND_CID>
85623

> <PUBCHEM_COMPOUND_CANONICALIZED>
1

> <PUBCHEM_CACTVS_COMPLEXITY>
28

> <PUBCHEM_CACTVS_HBOND_ACCEPTOR>
2

> <PUBCHEM_CACTVS_HBOND_DONOR>
0

> <PUBCHEM_CACTVS_ROTATABLE_BOND>
2

> <PUBCHEM_CACTVS_SUBSKEYS>
AAADccBAMAgAAAAAAAAAAAAAAAAAAAAAAAAAAAAAAAAAAAAAAAAAEhAAAECAAAAAAAJCAAAAAAAAAAAAAAAAAAAAAAAAAAAAAAAAAAAAAAAAAAAAAAAAAAAAAAAAAAAAAAAAAAAAAAAAAAAAAAAAAAAAAA==

> <PUBCHEM_IUPAC_OPENEYE_NAME>
dimethoxy(methyl)silane

> <PUBCHEM_IUPAC_CAS_NAME>
dimethoxy(methyl)silane

> <PUBCHEM_IUPAC_NAME_MARKUP>
dimethoxy(methyl)silane

> <PUBCHEM_IUPAC_NAME>
dimethoxy(methyl)silane

> <PUBCHEM_IUPAC_SYSTEMATIC_NAME>
dimethoxy(methyl)silane

> <PUBCHEM_IUPAC_TRADITIONAL_NAME>
dimethoxy(methyl)silane

> <PUBCHEM_IUPAC_INCHI>
InChI=1S/C3H10O2Si/c1-4-6(3)5-2/h6H,1-3H3

> <PUBCHEM_IUPAC_INCHIKEY>
WOUUFVMQNDKHSY-UHFFFAOYSA-N

> <PUBCHEM_EXACT_MASS>
106.045006092

> <PUBCHEM_MOLECULAR_FORMULA>
C3H10O2Si

> <PUBCHEM_MOLECULAR_WEIGHT>
106.20

> <PUBCHEM_SMILES>
CO[SiH](C)OC

> <PUBCHEM_CONNECTIVITY_SMILES>
CO[SiH](C)OC

> <PUBCHEM_CACTVS_TPSA>
18.5

> <PUBCHEM_MONOISOTOPIC_WEIGHT>
106.045006092

> <PUBCHEM_TOTAL_CHARGE>
0

> <PUBCHEM_HEAVY_ATOM_COUNT>
6

> <PUBCHEM_ATOM_DEF_STEREO_COUNT>
0

> <PUBCHEM_ATOM_UDEF_STEREO_COUNT>
0

> <PUBCHEM_BOND_DEF_STEREO_COUNT>
0

> <PUBCHEM_BOND_UDEF_STEREO_COUNT>
0

> <PUBCHEM_ISOTOPIC_ATOM_COUNT>
0

> <PUBCHEM_COMPONENT_COUNT>
1

> <PUBCHEM_CACTVS_TAUTO_COUNT>
-1

> <PUBCHEM_COORDINATE_TYPE>
1
5
255

$$$$
