85990
  -OEChem-05122608492D

 66 66  0     1  0  0  0  0  0999 V2000
    7.0000   -0.7500    0.0000 P   0  0  0  0  0  0  0  0  0  0  0  0
    7.8660   -0.2500    0.0000 O   0  0  0  0  0  0  0  0  0  0  0  0
    6.5000    0.1160    0.0000 O   0  0  0  0  0  0  0  0  0  0  0  0
    6.1340   -1.2500    0.0000 O   0  0  0  0  0  0  0  0  0  0  0  0
    7.5000   -1.6160    0.0000 O   0  0  0  0  0  0  0  0  0  0  0  0
    8.7321    1.2500    0.0000 C   0  0  3  0  0  0  0  0  0  0  0  0
    5.0000    0.9821    0.0000 C   0  0  3  0  0  0  0  0  0  0  0  0
    8.7321    2.2500    0.0000 C   0  0  0  0  0  0  0  0  0  0  0  0
    4.0000    0.9821    0.0000 C   0  0  0  0  0  0  0  0  0  0  0  0
    9.5981    0.7500    0.0000 C   0  0  0  0  0  0  0  0  0  0  0  0
    5.5000    1.8481    0.0000 C   0  0  0  0  0  0  0  0  0  0  0  0
    7.8660    0.7500    0.0000 C   0  0  0  0  0  0  0  0  0  0  0  0
    5.5000    0.1160    0.0000 C   0  0  0  0  0  0  0  0  0  0  0  0
    9.5981    2.7500    0.0000 C   0  0  0  0  0  0  0  0  0  0  0  0
    3.5000    1.8481    0.0000 C   0  0  0  0  0  0  0  0  0  0  0  0
    9.5981    3.7500    0.0000 C   0  0  0  0  0  0  0  0  0  0  0  0
    2.5000    1.8481    0.0000 C   0  0  0  0  0  0  0  0  0  0  0  0
   10.4641    1.2500    0.0000 C   0  0  0  0  0  0  0  0  0  0  0  0
    5.0000    2.7141    0.0000 C   0  0  0  0  0  0  0  0  0  0  0  0
   10.4641    4.2500    0.0000 C   0  0  0  0  0  0  0  0  0  0  0  0
    2.0000    2.7141    0.0000 C   0  0  0  0  0  0  0  0  0  0  0  0
    6.1340   -2.2500    0.0000 C   0  0  0  0  0  0  0  0  0  0  0  0
    7.0000   -2.7500    0.0000 C   0  0  0  0  0  0  0  0  0  0  0  0
    5.2680   -2.7500    0.0000 C   0  0  0  0  0  0  0  0  0  0  0  0
    7.0000   -3.7500    0.0000 C   0  0  0  0  0  0  0  0  0  0  0  0
    5.2680   -3.7500    0.0000 C   0  0  0  0  0  0  0  0  0  0  0  0
    6.1340   -4.2500    0.0000 C   0  0  0  0  0  0  0  0  0  0  0  0
    9.2690    1.5600    0.0000 H   0  0  0  0  0  0  0  0  0  0  0  0
    5.6200    0.9821    0.0000 H   0  0  0  0  0  0  0  0  0  0  0  0
    8.5200    2.8326    0.0000 H   0  0  0  0  0  0  0  0  0  0  0  0
    8.1215    2.1423    0.0000 H   0  0  0  0  0  0  0  0  0  0  0  0
    3.4174    0.7700    0.0000 H   0  0  0  0  0  0  0  0  0  0  0  0
    4.1077    0.3715    0.0000 H   0  0  0  0  0  0  0  0  0  0  0  0
    9.1996    0.2751    0.0000 H   0  0  0  0  0  0  0  0  0  0  0  0
    9.9966    0.2751    0.0000 H   0  0  0  0  0  0  0  0  0  0  0  0
    5.9750    1.4496    0.0000 H   0  0  0  0  0  0  0  0  0  0  0  0
    5.9750    2.2466    0.0000 H   0  0  0  0  0  0  0  0  0  0  0  0
    7.6540    1.3326    0.0000 H   0  0  0  0  0  0  0  0  0  0  0  0
    7.2554    0.6423    0.0000 H   0  0  0  0  0  0  0  0  0  0  0  0
    4.9174   -0.0960    0.0000 H   0  0  0  0  0  0  0  0  0  0  0  0
    5.6077   -0.4946    0.0000 H   0  0  0  0  0  0  0  0  0  0  0  0
    9.8101    2.1674    0.0000 H   0  0  0  0  0  0  0  0  0  0  0  0
   10.2087    2.8577    0.0000 H   0  0  0  0  0  0  0  0  0  0  0  0
    4.0826    2.0601    0.0000 H   0  0  0  0  0  0  0  0  0  0  0  0
    3.3923    2.4587    0.0000 H   0  0  0  0  0  0  0  0  0  0  0  0
    9.3860    4.3326    0.0000 H   0  0  0  0  0  0  0  0  0  0  0  0
    8.9875    3.6423    0.0000 H   0  0  0  0  0  0  0  0  0  0  0  0
    1.9174    1.6360    0.0000 H   0  0  0  0  0  0  0  0  0  0  0  0
    2.6077    1.2375    0.0000 H   0  0  0  0  0  0  0  0  0  0  0  0
   10.7741    0.7131    0.0000 H   0  0  0  0  0  0  0  0  0  0  0  0
   11.0010    1.5600    0.0000 H   0  0  0  0  0  0  0  0  0  0  0  0
   10.1541    1.7869    0.0000 H   0  0  0  0  0  0  0  0  0  0  0  0
    5.5369    3.0241    0.0000 H   0  0  0  0  0  0  0  0  0  0  0  0
    4.6900    3.2510    0.0000 H   0  0  0  0  0  0  0  0  0  0  0  0
    4.4631    2.4041    0.0000 H   0  0  0  0  0  0  0  0  0  0  0  0
   10.7741    3.7131    0.0000 H   0  0  0  0  0  0  0  0  0  0  0  0
   11.0010    4.5600    0.0000 H   0  0  0  0  0  0  0  0  0  0  0  0
   10.1541    4.7869    0.0000 H   0  0  0  0  0  0  0  0  0  0  0  0
    2.5369    3.0241    0.0000 H   0  0  0  0  0  0  0  0  0  0  0  0
    1.6900    3.2510    0.0000 H   0  0  0  0  0  0  0  0  0  0  0  0
    1.4631    2.4041    0.0000 H   0  0  0  0  0  0  0  0  0  0  0  0
    7.5369   -2.4400    0.0000 H   0  0  0  0  0  0  0  0  0  0  0  0
    4.7310   -2.4400    0.0000 H   0  0  0  0  0  0  0  0  0  0  0  0
    7.5369   -4.0600    0.0000 H   0  0  0  0  0  0  0  0  0  0  0  0
    4.7310   -4.0600    0.0000 H   0  0  0  0  0  0  0  0  0  0  0  0
    6.1340   -4.8700    0.0000 H   0  0  0  0  0  0  0  0  0  0  0  0
  1  2  1  0  0  0  0
  1  3  1  0  0  0  0
  1  4  1  0  0  0  0
  1  5  2  0  0  0  0
  2 12  1  0  0  0  0
  3 13  1  0  0  0  0
  4 22  1  0  0  0  0
  6  8  1  0  0  0  0
  6 10  1  0  0  0  0
  6 12  1  0  0  0  0
  6 28  1  0  0  0  0
  7  9  1  0  0  0  0
  7 11  1  0  0  0  0
  7 13  1  0  0  0  0
  7 29  1  0  0  0  0
  8 14  1  0  0  0  0
  8 30  1  0  0  0  0
  8 31  1  0  0  0  0
  9 15  1  0  0  0  0
  9 32  1  0  0  0  0
  9 33  1  0  0  0  0
 10 18  1  0  0  0  0
 10 34  1  0  0  0  0
 10 35  1  0  0  0  0
 11 19  1  0  0  0  0
 11 36  1  0  0  0  0
 11 37  1  0  0  0  0
 12 38  1  0  0  0  0
 12 39  1  0  0  0  0
 13 40  1  0  0  0  0
 13 41  1  0  0  0  0
 14 16  1  0  0  0  0
 14 42  1  0  0  0  0
 14 43  1  0  0  0  0
 15 17  1  0  0  0  0
 15 44  1  0  0  0  0
 15 45  1  0  0  0  0
 16 20  1  0  0  0  0
 16 46  1  0  0  0  0
 16 47  1  0  0  0  0
 17 21  1  0  0  0  0
 17 48  1  0  0  0  0
 17 49  1  0  0  0  0
 18 50  1  0  0  0  0
 18 51  1  0  0  0  0
 18 52  1  0  0  0  0
 19 53  1  0  0  0  0
 19 54  1  0  0  0  0
 19 55  1  0  0  0  0
 20 56  1  0  0  0  0
 20 57  1  0  0  0  0
 20 58  1  0  0  0  0
 21 59  1  0  0  0  0
 21 60  1  0  0  0  0
 21 61  1  0  0  0  0
 22 23  2  0  0  0  0
 22 24  1  0  0  0  0
 23 25  1  0  0  0  0
 23 62  1  0  0  0  0
 24 26  2  0  0  0  0
 24 63  1  0  0  0  0
 25 27  2  0  0  0  0
 25 64  1  0  0  0  0
 26 27  1  0  0  0  0
 26 65  1  0  0  0  0
 27 66  1  0  0  0  0
M  END
> <PUBCHEM_COMPOUND_CID>
85990

> <PUBCHEM_COMPOUND_CANONICALIZED>
1

> <PUBCHEM_CACTVS_COMPLEXITY>
372

> <PUBCHEM_CACTVS_HBOND_ACCEPTOR>
4

> <PUBCHEM_CACTVS_HBOND_DONOR>
0

> <PUBCHEM_CACTVS_ROTATABLE_BOND>
16

> <PUBCHEM_CACTVS_SUBSKEYS>
AAADcfB4OAIAAAAAAAAAAAAAAAAAAAAAAAAwAAAAAAAAAAABAAAAGgAAACAADQSgkAIyBoAAARCAQCBCAIACAAAgIAAIiAAGCIgIJiKAERKAMAAkwBEIiAeAwAAOAAAAAAAAAAAAAAAAAAAAAAAAAAAAAA==

> <PUBCHEM_IUPAC_OPENEYE_NAME>
bis(2-ethylhexyl) phenyl phosphate

> <PUBCHEM_IUPAC_CAS_NAME>
phosphoric acid bis(2-ethylhexyl) phenyl ester

> <PUBCHEM_IUPAC_NAME_MARKUP>
bis(2-ethylhexyl) phenyl phosphate

> <PUBCHEM_IUPAC_NAME>
bis(2-ethylhexyl) phenyl phosphate

> <PUBCHEM_IUPAC_SYSTEMATIC_NAME>
bis(2-ethylhexyl) phenyl phosphate

> <PUBCHEM_IUPAC_TRADITIONAL_NAME>
phosphoric acid bis(2-ethylhexyl) phenyl ester

> <PUBCHEM_IUPAC_INCHI>
InChI=1S/C22H39O4P/c1-5-9-14-20(7-3)18-24-27(23,26-22-16-12-11-13-17-22)25-19-21(8-4)15-10-6-2/h11-13,16-17,20-21H,5-10,14-15,18-19H2,1-4H3

> <PUBCHEM_IUPAC_INCHIKEY>
ZXZYMQCBRZBVIC-UHFFFAOYSA-N

> <PUBCHEM_XLOGP3>
7.2

> <PUBCHEM_EXACT_MASS>
398.25859672

> <PUBCHEM_MOLECULAR_FORMULA>
C22H39O4P

> <PUBCHEM_MOLECULAR_WEIGHT>
398.5

> <PUBCHEM_SMILES>
CCCCC(CC)COP(=O)(OCC(CC)CCCC)OC1=CC=CC=C1

> <PUBCHEM_CONNECTIVITY_SMILES>
CCCCC(CC)COP(=O)(OCC(CC)CCCC)OC1=CC=CC=C1

> <PUBCHEM_CACTVS_TPSA>
44.8

> <PUBCHEM_MONOISOTOPIC_WEIGHT>
398.25859672

> <PUBCHEM_TOTAL_CHARGE>
0

> <PUBCHEM_HEAVY_ATOM_COUNT>
27

> <PUBCHEM_ATOM_DEF_STEREO_COUNT>
0

> <PUBCHEM_ATOM_UDEF_STEREO_COUNT>
2

> <PUBCHEM_BOND_DEF_STEREO_COUNT>
0

> <PUBCHEM_BOND_UDEF_STEREO_COUNT>
0

> <PUBCHEM_ISOTOPIC_ATOM_COUNT>
0

> <PUBCHEM_COMPONENT_COUNT>
1

> <PUBCHEM_CACTVS_TAUTO_COUNT>
-1

> <PUBCHEM_COORDINATE_TYPE>
1
5
255

> <PUBCHEM_BONDANNOTATIONS>
22  23  8
22  24  8
23  25  8
24  26  8
25  27  8
26  27  8
6  10  3
7  11  3

$$$$
