86171
  -OEChem-05122609372D

 57 59  0     1  0  0  0  0  0999 V2000
    2.0000    1.7641    0.0000 O   0  0  0  0  0  0  0  0  0  0  0  0
    2.8660   -4.7359    0.0000 O   0  0  0  0  0  0  0  0  0  0  0  0
    3.2321    2.6301    0.0000 N   0  0  0  0  0  0  0  0  0  0  0  0
    2.8660   -2.7359    0.0000 N   0  0  0  0  0  0  0  0  0  0  0  0
    3.7321    1.7641    0.0000 C   0  0  3  0  0  0  0  0  0  0  0  0
    4.5981    2.2641    0.0000 C   0  0  0  0  0  0  0  0  0  0  0  0
    4.2321    0.8981    0.0000 C   0  0  0  0  0  0  0  0  0  0  0  0
    2.8660    1.2641    0.0000 C   0  0  0  0  0  0  0  0  0  0  0  0
    5.2409    3.0302    0.0000 C   0  0  0  0  0  0  0  0  0  0  0  0
    2.8660    0.2641    0.0000 C   0  0  0  0  0  0  0  0  0  0  0  0
    5.2321    0.8981    0.0000 C   0  0  0  0  0  0  0  0  0  0  0  0
    2.2321    2.6301    0.0000 C   0  0  0  0  0  0  0  0  0  0  0  0
    3.0584    3.6149    0.0000 C   0  0  0  0  0  0  0  0  0  0  0  0
    2.8660   -1.7359    0.0000 C   0  0  0  0  0  0  0  0  0  0  0  0
    3.7321   -3.2359    0.0000 C   0  0  0  0  0  0  0  0  0  0  0  0
    2.0000   -3.2359    0.0000 C   0  0  0  0  0  0  0  0  0  0  0  0
    2.0000   -0.2359    0.0000 C   0  0  0  0  0  0  0  0  0  0  0  0
    3.7321   -0.2359    0.0000 C   0  0  0  0  0  0  0  0  0  0  0  0
    4.8988    3.9699    0.0000 C   0  0  0  0  0  0  0  0  0  0  0  0
    6.2257    2.8565    0.0000 C   0  0  0  0  0  0  0  0  0  0  0  0
    2.0000   -1.2359    0.0000 C   0  0  0  0  0  0  0  0  0  0  0  0
    3.7321   -1.2359    0.0000 C   0  0  0  0  0  0  0  0  0  0  0  0
    3.7321   -4.2359    0.0000 C   0  0  0  0  0  0  0  0  0  0  0  0
    2.0000   -4.2359    0.0000 C   0  0  0  0  0  0  0  0  0  0  0  0
    5.5416    4.7359    0.0000 C   0  0  0  0  0  0  0  0  0  0  0  0
    6.8685    3.6226    0.0000 C   0  0  0  0  0  0  0  0  0  0  0  0
    6.5264    4.5622    0.0000 C   0  0  0  0  0  0  0  0  0  0  0  0
    4.6701    1.6483    0.0000 H   0  0  0  0  0  0  0  0  0  0  0  0
    4.1996    2.7391    0.0000 H   0  0  0  0  0  0  0  0  0  0  0  0
    3.6494    0.6860    0.0000 H   0  0  0  0  0  0  0  0  0  0  0  0
    4.3397    0.2875    0.0000 H   0  0  0  0  0  0  0  0  0  0  0  0
    5.2321    0.2781    0.0000 H   0  0  0  0  0  0  0  0  0  0  0  0
    5.8521    0.8981    0.0000 H   0  0  0  0  0  0  0  0  0  0  0  0
    5.2321    1.5181    0.0000 H   0  0  0  0  0  0  0  0  0  0  0  0
    2.2321    3.2501    0.0000 H   0  0  0  0  0  0  0  0  0  0  0  0
    1.6121    2.6301    0.0000 H   0  0  0  0  0  0  0  0  0  0  0  0
    2.2321    2.0101    0.0000 H   0  0  0  0  0  0  0  0  0  0  0  0
    3.6690    3.7226    0.0000 H   0  0  0  0  0  0  0  0  0  0  0  0
    2.9507    4.2255    0.0000 H   0  0  0  0  0  0  0  0  0  0  0  0
    2.4478    3.5073    0.0000 H   0  0  0  0  0  0  0  0  0  0  0  0
    4.3426   -3.3436    0.0000 H   0  0  0  0  0  0  0  0  0  0  0  0
    3.9441   -2.6533    0.0000 H   0  0  0  0  0  0  0  0  0  0  0  0
    1.7880   -2.6533    0.0000 H   0  0  0  0  0  0  0  0  0  0  0  0
    1.3894   -3.3436    0.0000 H   0  0  0  0  0  0  0  0  0  0  0  0
    1.4631    0.0741    0.0000 H   0  0  0  0  0  0  0  0  0  0  0  0
    4.2690    0.0741    0.0000 H   0  0  0  0  0  0  0  0  0  0  0  0
    1.4631   -1.5459    0.0000 H   0  0  0  0  0  0  0  0  0  0  0  0
    4.2690   -1.5459    0.0000 H   0  0  0  0  0  0  0  0  0  0  0  0
    4.2883    4.0775    0.0000 H   0  0  0  0  0  0  0  0  0  0  0  0
    6.4377    2.2739    0.0000 H   0  0  0  0  0  0  0  0  0  0  0  0
    3.9441   -4.8185    0.0000 H   0  0  0  0  0  0  0  0  0  0  0  0
    4.3426   -4.1282    0.0000 H   0  0  0  0  0  0  0  0  0  0  0  0
    1.3894   -4.1282    0.0000 H   0  0  0  0  0  0  0  0  0  0  0  0
    1.7880   -4.8185    0.0000 H   0  0  0  0  0  0  0  0  0  0  0  0
    5.3296    5.3185    0.0000 H   0  0  0  0  0  0  0  0  0  0  0  0
    7.4790    3.5149    0.0000 H   0  0  0  0  0  0  0  0  0  0  0  0
    6.9250    5.0372    0.0000 H   0  0  0  0  0  0  0  0  0  0  0  0
  1  8  2  0  0  0  0
  2 23  1  0  0  0  0
  2 24  1  0  0  0  0
  3  5  1  0  0  0  0
  3 12  1  0  0  0  0
  3 13  1  0  0  0  0
  4 14  1  0  0  0  0
  4 15  1  0  0  0  0
  4 16  1  0  0  0  0
  5  6  1  0  0  0  0
  5  7  1  0  0  0  0
  5  8  1  0  0  0  0
  6  9  1  0  0  0  0
  6 28  1  0  0  0  0
  6 29  1  0  0  0  0
  7 11  1  0  0  0  0
  7 30  1  0  0  0  0
  7 31  1  0  0  0  0
  8 10  1  0  0  0  0
  9 19  2  0  0  0  0
  9 20  1  0  0  0  0
 10 17  2  0  0  0  0
 10 18  1  0  0  0  0
 11 32  1  0  0  0  0
 11 33  1  0  0  0  0
 11 34  1  0  0  0  0
 12 35  1  0  0  0  0
 12 36  1  0  0  0  0
 12 37  1  0  0  0  0
 13 38  1  0  0  0  0
 13 39  1  0  0  0  0
 13 40  1  0  0  0  0
 14 21  2  0  0  0  0
 14 22  1  0  0  0  0
 15 23  1  0  0  0  0
 15 41  1  0  0  0  0
 15 42  1  0  0  0  0
 16 24  1  0  0  0  0
 16 43  1  0  0  0  0
 16 44  1  0  0  0  0
 17 21  1  0  0  0  0
 17 45  1  0  0  0  0
 18 22  2  0  0  0  0
 18 46  1  0  0  0  0
 19 25  1  0  0  0  0
 19 49  1  0  0  0  0
 20 26  2  0  0  0  0
 20 50  1  0  0  0  0
 21 47  1  0  0  0  0
 22 48  1  0  0  0  0
 23 51  1  0  0  0  0
 23 52  1  0  0  0  0
 24 53  1  0  0  0  0
 24 54  1  0  0  0  0
 25 27  2  0  0  0  0
 25 55  1  0  0  0  0
 26 27  1  0  0  0  0
 26 56  1  0  0  0  0
 27 57  1  0  0  0  0
M  END
> <PUBCHEM_COMPOUND_CID>
86171

> <PUBCHEM_COMPOUND_CANONICALIZED>
1

> <PUBCHEM_CACTVS_COMPLEXITY>
461

> <PUBCHEM_CACTVS_HBOND_ACCEPTOR>
4

> <PUBCHEM_CACTVS_HBOND_DONOR>
0

> <PUBCHEM_CACTVS_ROTATABLE_BOND>
7

> <PUBCHEM_CACTVS_SUBSKEYS>
AAADceB7MAAAAAAAAAAAAAAAAAAAAAAAAAA8YIAAAAAAAAABQAAAHgAAAAAADIzhmAYywIMABACIAqRSQACCAAAlAgAIiAGIZMgKIDLAlbGHIQhggADYyYcYicCeCAAAAAAAAAAQAAAAAAAAAAAAAAAAAA==

> <PUBCHEM_IUPAC_OPENEYE_NAME>
2-benzyl-2-(dimethylamino)-1-(4-morpholinophenyl)butan-1-one

> <PUBCHEM_IUPAC_CAS_NAME>
2-(dimethylamino)-1-[4-(4-morpholinyl)phenyl]-2-(phenylmethyl)-1-butanone

> <PUBCHEM_IUPAC_NAME_MARKUP>
2-benzyl-2-(dimethylamino)-1-(4-morpholin-4-ylphenyl)butan-1-one

> <PUBCHEM_IUPAC_NAME>
2-benzyl-2-(dimethylamino)-1-(4-morpholin-4-ylphenyl)butan-1-one

> <PUBCHEM_IUPAC_SYSTEMATIC_NAME>
2-(dimethylamino)-1-(4-morpholin-4-ylphenyl)-2-(phenylmethyl)butan-1-one

> <PUBCHEM_IUPAC_TRADITIONAL_NAME>
2-benzyl-2-(dimethylamino)-1-(4-morpholinophenyl)butan-1-one

> <PUBCHEM_IUPAC_INCHI>
InChI=1S/C23H30N2O2/c1-4-23(24(2)3,18-19-8-6-5-7-9-19)22(26)20-10-12-21(13-11-20)25-14-16-27-17-15-25/h5-13H,4,14-18H2,1-3H3

> <PUBCHEM_IUPAC_INCHIKEY>
UHFFVFAKEGKNAQ-UHFFFAOYSA-N

> <PUBCHEM_XLOGP3_AA>
4.1

> <PUBCHEM_EXACT_MASS>
366.230728204

> <PUBCHEM_MOLECULAR_FORMULA>
C23H30N2O2

> <PUBCHEM_MOLECULAR_WEIGHT>
366.5

> <PUBCHEM_SMILES>
CCC(CC1=CC=CC=C1)(C(=O)C2=CC=C(C=C2)N3CCOCC3)N(C)C

> <PUBCHEM_CONNECTIVITY_SMILES>
CCC(CC1=CC=CC=C1)(C(=O)C2=CC=C(C=C2)N3CCOCC3)N(C)C

> <PUBCHEM_CACTVS_TPSA>
32.8

> <PUBCHEM_MONOISOTOPIC_WEIGHT>
366.230728204

> <PUBCHEM_TOTAL_CHARGE>
0

> <PUBCHEM_HEAVY_ATOM_COUNT>
27

> <PUBCHEM_ATOM_DEF_STEREO_COUNT>
0

> <PUBCHEM_ATOM_UDEF_STEREO_COUNT>
1

> <PUBCHEM_BOND_DEF_STEREO_COUNT>
0

> <PUBCHEM_BOND_UDEF_STEREO_COUNT>
0

> <PUBCHEM_ISOTOPIC_ATOM_COUNT>
0

> <PUBCHEM_COMPONENT_COUNT>
1

> <PUBCHEM_CACTVS_TAUTO_COUNT>
-1

> <PUBCHEM_COORDINATE_TYPE>
1
5
255

> <PUBCHEM_BONDANNOTATIONS>
10  17  8
10  18  8
14  21  8
14  22  8
17  21  8
18  22  8
19  25  8
20  26  8
25  27  8
26  27  8
5  7  3
9  19  8
9  20  8

$$$$
