86179502
  -OEChem-05122608242D

152152  0     0  0  0  0  0  0999 V2000
    2.0000   -1.4781    0.0000 O   0  0  0  0  0  0  0  0  0  0  0  0
    5.9175   -7.9795    0.0000 O   0  0  0  0  0  0  0  0  0  0  0  0
    3.8271    5.8891    0.0000 O   0  0  0  0  0  0  0  0  0  0  0  0
   13.2847   -9.8066    0.0000 O   0  0  0  0  0  0  0  0  0  0  0  0
   10.3285    9.8066    0.0000 O   0  0  0  0  0  0  0  0  0  0  0  0
   19.7861   -5.8891    0.0000 O   0  0  0  0  0  0  0  0  0  0  0  0
   17.6957    7.9795    0.0000 O   0  0  0  0  0  0  0  0  0  0  0  0
   21.6132    1.4781    0.0000 O   0  0  0  0  0  0  0  0  0  0  0  0
    3.1931   -2.3080    0.0000 N   0  0  0  0  0  0  0  0  0  0  0  0
    4.0839    4.4587    0.0000 N   0  0  0  0  0  0  0  0  0  0  0  0
    7.3479   -7.7227    0.0000 N   0  0  0  0  0  0  0  0  0  0  0  0
    9.4986    8.6135    0.0000 N   0  0  0  0  0  0  0  0  0  0  0  0
   14.1146   -8.6135    0.0000 N   0  0  0  0  0  0  0  0  0  0  0  0
   16.2653    7.7227    0.0000 N   0  0  0  0  0  0  0  0  0  0  0  0
   19.5292   -4.4587    0.0000 N   0  0  0  0  0  0  0  0  0  0  0  0
   20.4201    2.3080    0.0000 N   0  0  0  0  0  0  0  0  0  0  0  0
    3.0447    1.6578    0.0000 C   0  0  0  0  0  0  0  0  0  0  0  0
    4.4387   -5.0233    0.0000 C   0  0  0  0  0  0  0  0  0  0  0  0
    6.7833    7.3679    0.0000 C   0  0  0  0  0  0  0  0  0  0  0  0
   10.1487   -8.7619    0.0000 C   0  0  0  0  0  0  0  0  0  0  0  0
   13.4644    8.7619    0.0000 C   0  0  0  0  0  0  0  0  0  0  0  0
   16.8299   -7.3679    0.0000 C   0  0  0  0  0  0  0  0  0  0  0  0
   19.1744    5.0233    0.0000 C   0  0  0  0  0  0  0  0  0  0  0  0
   20.5685   -1.6578    0.0000 C   0  0  0  0  0  0  0  0  0  0  0  0
    3.2854    2.6284    0.0000 C   0  0  0  0  0  0  0  0  0  0  0  0
    3.9226   -4.1668    0.0000 C   0  0  0  0  0  0  0  0  0  0  0  0
    7.6398    7.8840    0.0000 C   0  0  0  0  0  0  0  0  0  0  0  0
    9.1782   -8.5212    0.0000 C   0  0  0  0  0  0  0  0  0  0  0  0
   14.4350    8.5212    0.0000 C   0  0  0  0  0  0  0  0  0  0  0  0
   15.9734   -7.8840    0.0000 C   0  0  0  0  0  0  0  0  0  0  0  0
   19.6906    4.1668    0.0000 C   0  0  0  0  0  0  0  0  0  0  0  0
   20.3278   -2.6284    0.0000 C   0  0  0  0  0  0  0  0  0  0  0  0
    2.9142    0.6664    0.0000 C   0  0  0  0  0  0  0  0  0  0  0  0
    5.0475   -5.8167    0.0000 C   0  0  0  0  0  0  0  0  0  0  0  0
    5.9899    6.7591    0.0000 C   0  0  0  0  0  0  0  0  0  0  0  0
   11.1402   -8.8924    0.0000 C   0  0  0  0  0  0  0  0  0  0  0  0
   12.4730    8.8924    0.0000 C   0  0  0  0  0  0  0  0  0  0  0  0
   17.6233   -6.7591    0.0000 C   0  0  0  0  0  0  0  0  0  0  0  0
   18.5657    5.8167    0.0000 C   0  0  0  0  0  0  0  0  0  0  0  0
   20.6990   -0.6664    0.0000 C   0  0  0  0  0  0  0  0  0  0  0  0
    3.5057   -3.2579    0.0000 C   0  0  0  0  0  0  0  0  0  0  0  0
    3.6333    3.5660    0.0000 C   0  0  0  0  0  0  0  0  0  0  0  0
    8.2406   -8.1733    0.0000 C   0  0  0  0  0  0  0  0  0  0  0  0
    8.5487    8.3009    0.0000 C   0  0  0  0  0  0  0  0  0  0  0  0
   15.0645   -8.3009    0.0000 C   0  0  0  0  0  0  0  0  0  0  0  0
   15.3726    8.1733    0.0000 C   0  0  0  0  0  0  0  0  0  0  0  0
   19.9799   -3.5660    0.0000 C   0  0  0  0  0  0  0  0  0  0  0  0
   20.1075    3.2579    0.0000 C   0  0  0  0  0  0  0  0  0  0  0  0
    2.8955   -0.3334    0.0000 C   0  0  0  0  0  0  0  0  0  0  0  0
    5.7412   -6.5369    0.0000 C   0  0  0  0  0  0  0  0  0  0  0  0
    5.2697    6.0653    0.0000 C   0  0  0  0  0  0  0  0  0  0  0  0
   12.1400   -8.9111    0.0000 C   0  0  0  0  0  0  0  0  0  0  0  0
   11.4732    8.9111    0.0000 C   0  0  0  0  0  0  0  0  0  0  0  0
   18.3435   -6.0653    0.0000 C   0  0  0  0  0  0  0  0  0  0  0  0
   17.8719    6.5369    0.0000 C   0  0  0  0  0  0  0  0  0  0  0  0
   20.7177    0.3334    0.0000 C   0  0  0  0  0  0  0  0  0  0  0  0
    2.9888   -1.3291    0.0000 C   0  0  0  0  0  0  0  0  0  0  0  0
    6.5113   -7.1749    0.0000 C   0  0  0  0  0  0  0  0  0  0  0  0
    4.6317    5.2953    0.0000 C   0  0  0  0  0  0  0  0  0  0  0  0
   13.1356   -8.8178    0.0000 C   0  0  0  0  0  0  0  0  0  0  0  0
   10.4775    8.8178    0.0000 C   0  0  0  0  0  0  0  0  0  0  0  0
   18.9815   -5.2953    0.0000 C   0  0  0  0  0  0  0  0  0  0  0  0
   17.1019    7.1749    0.0000 C   0  0  0  0  0  0  0  0  0  0  0  0
   20.6243    1.3291    0.0000 C   0  0  0  0  0  0  0  0  0  0  0  0
    2.5824    2.0710    0.0000 H   0  0  0  0  0  0  0  0  0  0  0  0
    3.6539    1.5426    0.0000 H   0  0  0  0  0  0  0  0  0  0  0  0
    3.8197   -5.0581    0.0000 H   0  0  0  0  0  0  0  0  0  0  0  0
    4.9510   -4.6741    0.0000 H   0  0  0  0  0  0  0  0  0  0  0  0
    6.7485    7.9869    0.0000 H   0  0  0  0  0  0  0  0  0  0  0  0
    7.1325    6.8556    0.0000 H   0  0  0  0  0  0  0  0  0  0  0  0
    9.7356   -9.2242    0.0000 H   0  0  0  0  0  0  0  0  0  0  0  0
   10.2640   -8.1527    0.0000 H   0  0  0  0  0  0  0  0  0  0  0  0
   13.8776    9.2242    0.0000 H   0  0  0  0  0  0  0  0  0  0  0  0
   13.3492    8.1527    0.0000 H   0  0  0  0  0  0  0  0  0  0  0  0
   16.8647   -7.9869    0.0000 H   0  0  0  0  0  0  0  0  0  0  0  0
   16.4806   -6.8556    0.0000 H   0  0  0  0  0  0  0  0  0  0  0  0
   19.7935    5.0581    0.0000 H   0  0  0  0  0  0  0  0  0  0  0  0
   18.6622    4.6741    0.0000 H   0  0  0  0  0  0  0  0  0  0  0  0
   21.0308   -2.0710    0.0000 H   0  0  0  0  0  0  0  0  0  0  0  0
   19.9593   -1.5426    0.0000 H   0  0  0  0  0  0  0  0  0  0  0  0
    2.8723    3.0907    0.0000 H   0  0  0  0  0  0  0  0  0  0  0  0
    3.8779    2.4457    0.0000 H   0  0  0  0  0  0  0  0  0  0  0  0
    4.4708   -3.8771    0.0000 H   0  0  0  0  0  0  0  0  0  0  0  0
    3.3036   -4.1320    0.0000 H   0  0  0  0  0  0  0  0  0  0  0  0
    7.6746    8.5030    0.0000 H   0  0  0  0  0  0  0  0  0  0  0  0
    7.9295    7.3358    0.0000 H   0  0  0  0  0  0  0  0  0  0  0  0
    9.3609   -7.9287    0.0000 H   0  0  0  0  0  0  0  0  0  0  0  0
    8.7159   -8.9343    0.0000 H   0  0  0  0  0  0  0  0  0  0  0  0
   14.8973    8.9343    0.0000 H   0  0  0  0  0  0  0  0  0  0  0  0
   14.2523    7.9287    0.0000 H   0  0  0  0  0  0  0  0  0  0  0  0
   15.6837   -7.3358    0.0000 H   0  0  0  0  0  0  0  0  0  0  0  0
   15.9386   -8.5030    0.0000 H   0  0  0  0  0  0  0  0  0  0  0  0
   20.3096    4.1320    0.0000 H   0  0  0  0  0  0  0  0  0  0  0  0
   19.1424    3.8771    0.0000 H   0  0  0  0  0  0  0  0  0  0  0  0
   19.7353   -2.4457    0.0000 H   0  0  0  0  0  0  0  0  0  0  0  0
   20.7409   -3.0907    0.0000 H   0  0  0  0  0  0  0  0  0  0  0  0
    2.4085    1.0252    0.0000 H   0  0  0  0  0  0  0  0  0  0  0  0
    3.5324    0.6201    0.0000 H   0  0  0  0  0  0  0  0  0  0  0  0
    4.4362   -5.9205    0.0000 H   0  0  0  0  0  0  0  0  0  0  0  0
    5.5174   -5.4123    0.0000 H   0  0  0  0  0  0  0  0  0  0  0  0
    5.8861    7.3703    0.0000 H   0  0  0  0  0  0  0  0  0  0  0  0
    6.3943    6.2892    0.0000 H   0  0  0  0  0  0  0  0  0  0  0  0
   10.7814   -9.3981    0.0000 H   0  0  0  0  0  0  0  0  0  0  0  0
   11.1865   -8.2742    0.0000 H   0  0  0  0  0  0  0  0  0  0  0  0
   12.8318    9.3981    0.0000 H   0  0  0  0  0  0  0  0  0  0  0  0
   12.4266    8.2742    0.0000 H   0  0  0  0  0  0  0  0  0  0  0  0
   17.7271   -7.3703    0.0000 H   0  0  0  0  0  0  0  0  0  0  0  0
   17.2188   -6.2892    0.0000 H   0  0  0  0  0  0  0  0  0  0  0  0
   19.1769    5.9205    0.0000 H   0  0  0  0  0  0  0  0  0  0  0  0
   18.0957    5.4123    0.0000 H   0  0  0  0  0  0  0  0  0  0  0  0
   21.2047   -1.0252    0.0000 H   0  0  0  0  0  0  0  0  0  0  0  0
   20.0807   -0.6201    0.0000 H   0  0  0  0  0  0  0  0  0  0  0  0
    2.8944   -3.1540    0.0000 H   0  0  0  0  0  0  0  0  0  0  0  0
    4.0828   -3.0314    0.0000 H   0  0  0  0  0  0  0  0  0  0  0  0
    3.2745    4.0716    0.0000 H   0  0  0  0  0  0  0  0  0  0  0  0
    4.2015    3.3181    0.0000 H   0  0  0  0  0  0  0  0  0  0  0  0
    7.7350   -8.5321    0.0000 H   0  0  0  0  0  0  0  0  0  0  0  0
    8.4885   -7.6050    0.0000 H   0  0  0  0  0  0  0  0  0  0  0  0
    8.6526    8.9122    0.0000 H   0  0  0  0  0  0  0  0  0  0  0  0
    8.7752    7.7238    0.0000 H   0  0  0  0  0  0  0  0  0  0  0  0
   14.9606   -8.9122    0.0000 H   0  0  0  0  0  0  0  0  0  0  0  0
   14.8379   -7.7238    0.0000 H   0  0  0  0  0  0  0  0  0  0  0  0
   15.8782    8.5321    0.0000 H   0  0  0  0  0  0  0  0  0  0  0  0
   15.1246    7.6050    0.0000 H   0  0  0  0  0  0  0  0  0  0  0  0
   20.3387   -4.0716    0.0000 H   0  0  0  0  0  0  0  0  0  0  0  0
   19.4116   -3.3181    0.0000 H   0  0  0  0  0  0  0  0  0  0  0  0
   20.7188    3.1540    0.0000 H   0  0  0  0  0  0  0  0  0  0  0  0
   19.5304    3.0314    0.0000 H   0  0  0  0  0  0  0  0  0  0  0  0
    2.3528   -0.0335    0.0000 H   0  0  0  0  0  0  0  0  0  0  0  0
    3.5150   -0.3102    0.0000 H   0  0  0  0  0  0  0  0  0  0  0  0
    5.1455   -6.7085    0.0000 H   0  0  0  0  0  0  0  0  0  0  0  0
    6.1630   -6.0824    0.0000 H   0  0  0  0  0  0  0  0  0  0  0  0
    5.0981    6.6611    0.0000 H   0  0  0  0  0  0  0  0  0  0  0  0
    5.7242    5.6436    0.0000 H   0  0  0  0  0  0  0  0  0  0  0  0
   11.8401   -9.4538    0.0000 H   0  0  0  0  0  0  0  0  0  0  0  0
   12.1168   -8.2916    0.0000 H   0  0  0  0  0  0  0  0  0  0  0  0
   11.7731    9.4538    0.0000 H   0  0  0  0  0  0  0  0  0  0  0  0
   11.4963    8.2916    0.0000 H   0  0  0  0  0  0  0  0  0  0  0  0
   18.5151   -6.6611    0.0000 H   0  0  0  0  0  0  0  0  0  0  0  0
   17.8890   -5.6436    0.0000 H   0  0  0  0  0  0  0  0  0  0  0  0
   18.4677    6.7085    0.0000 H   0  0  0  0  0  0  0  0  0  0  0  0
   17.4502    6.0824    0.0000 H   0  0  0  0  0  0  0  0  0  0  0  0
   21.2603    0.0335    0.0000 H   0  0  0  0  0  0  0  0  0  0  0  0
   20.0981    0.3102    0.0000 H   0  0  0  0  0  0  0  0  0  0  0  0
    2.5942   -2.4685    0.0000 H   0  0  0  0  0  0  0  0  0  0  0  0
    3.5470    4.7687    0.0000 H   0  0  0  0  0  0  0  0  0  0  0  0
    7.0379   -8.2596    0.0000 H   0  0  0  0  0  0  0  0  0  0  0  0
    9.3381    9.2124    0.0000 H   0  0  0  0  0  0  0  0  0  0  0  0
   14.2750   -9.2124    0.0000 H   0  0  0  0  0  0  0  0  0  0  0  0
   16.5753    8.2596    0.0000 H   0  0  0  0  0  0  0  0  0  0  0  0
   20.0662   -4.7687    0.0000 H   0  0  0  0  0  0  0  0  0  0  0  0
   21.0190    2.4685    0.0000 H   0  0  0  0  0  0  0  0  0  0  0  0
  1 57  2  0  0  0  0
  2 58  2  0  0  0  0
  3 59  2  0  0  0  0
  4 60  2  0  0  0  0
  5 61  2  0  0  0  0
  6 62  2  0  0  0  0
  7 63  2  0  0  0  0
  8 64  2  0  0  0  0
  9 41  1  0  0  0  0
  9 57  1  0  0  0  0
  9145  1  0  0  0  0
 10 42  1  0  0  0  0
 10 59  1  0  0  0  0
 10146  1  0  0  0  0
 11 43  1  0  0  0  0
 11 58  1  0  0  0  0
 11147  1  0  0  0  0
 12 44  1  0  0  0  0
 12 61  1  0  0  0  0
 12148  1  0  0  0  0
 13 45  1  0  0  0  0
 13 60  1  0  0  0  0
 13149  1  0  0  0  0
 14 46  1  0  0  0  0
 14 63  1  0  0  0  0
 14150  1  0  0  0  0
 15 47  1  0  0  0  0
 15 62  1  0  0  0  0
 15151  1  0  0  0  0
 16 48  1  0  0  0  0
 16 64  1  0  0  0  0
 16152  1  0  0  0  0
 17 25  1  0  0  0  0
 17 33  1  0  0  0  0
 17 65  1  0  0  0  0
 17 66  1  0  0  0  0
 18 26  1  0  0  0  0
 18 34  1  0  0  0  0
 18 67  1  0  0  0  0
 18 68  1  0  0  0  0
 19 27  1  0  0  0  0
 19 35  1  0  0  0  0
 19 69  1  0  0  0  0
 19 70  1  0  0  0  0
 20 28  1  0  0  0  0
 20 36  1  0  0  0  0
 20 71  1  0  0  0  0
 20 72  1  0  0  0  0
 21 29  1  0  0  0  0
 21 37  1  0  0  0  0
 21 73  1  0  0  0  0
 21 74  1  0  0  0  0
 22 30  1  0  0  0  0
 22 38  1  0  0  0  0
 22 75  1  0  0  0  0
 22 76  1  0  0  0  0
 23 31  1  0  0  0  0
 23 39  1  0  0  0  0
 23 77  1  0  0  0  0
 23 78  1  0  0  0  0
 24 32  1  0  0  0  0
 24 40  1  0  0  0  0
 24 79  1  0  0  0  0
 24 80  1  0  0  0  0
 25 42  1  0  0  0  0
 25 81  1  0  0  0  0
 25 82  1  0  0  0  0
 26 41  1  0  0  0  0
 26 83  1  0  0  0  0
 26 84  1  0  0  0  0
 27 44  1  0  0  0  0
 27 85  1  0  0  0  0
 27 86  1  0  0  0  0
 28 43  1  0  0  0  0
 28 87  1  0  0  0  0
 28 88  1  0  0  0  0
 29 46  1  0  0  0  0
 29 89  1  0  0  0  0
 29 90  1  0  0  0  0
 30 45  1  0  0  0  0
 30 91  1  0  0  0  0
 30 92  1  0  0  0  0
 31 48  1  0  0  0  0
 31 93  1  0  0  0  0
 31 94  1  0  0  0  0
 32 47  1  0  0  0  0
 32 95  1  0  0  0  0
 32 96  1  0  0  0  0
 33 49  1  0  0  0  0
 33 97  1  0  0  0  0
 33 98  1  0  0  0  0
 34 50  1  0  0  0  0
 34 99  1  0  0  0  0
 34100  1  0  0  0  0
 35 51  1  0  0  0  0
 35101  1  0  0  0  0
 35102  1  0  0  0  0
 36 52  1  0  0  0  0
 36103  1  0  0  0  0
 36104  1  0  0  0  0
 37 53  1  0  0  0  0
 37105  1  0  0  0  0
 37106  1  0  0  0  0
 38 54  1  0  0  0  0
 38107  1  0  0  0  0
 38108  1  0  0  0  0
 39 55  1  0  0  0  0
 39109  1  0  0  0  0
 39110  1  0  0  0  0
 40 56  1  0  0  0  0
 40111  1  0  0  0  0
 40112  1  0  0  0  0
 41113  1  0  0  0  0
 41114  1  0  0  0  0
 42115  1  0  0  0  0
 42116  1  0  0  0  0
 43117  1  0  0  0  0
 43118  1  0  0  0  0
 44119  1  0  0  0  0
 44120  1  0  0  0  0
 45121  1  0  0  0  0
 45122  1  0  0  0  0
 46123  1  0  0  0  0
 46124  1  0  0  0  0
 47125  1  0  0  0  0
 47126  1  0  0  0  0
 48127  1  0  0  0  0
 48128  1  0  0  0  0
 49 57  1  0  0  0  0
 49129  1  0  0  0  0
 49130  1  0  0  0  0
 50 58  1  0  0  0  0
 50131  1  0  0  0  0
 50132  1  0  0  0  0
 51 59  1  0  0  0  0
 51133  1  0  0  0  0
 51134  1  0  0  0  0
 52 60  1  0  0  0  0
 52135  1  0  0  0  0
 52136  1  0  0  0  0
 53 61  1  0  0  0  0
 53137  1  0  0  0  0
 53138  1  0  0  0  0
 54 62  1  0  0  0  0
 54139  1  0  0  0  0
 54140  1  0  0  0  0
 55 63  1  0  0  0  0
 55141  1  0  0  0  0
 55142  1  0  0  0  0
 56 64  1  0  0  0  0
 56143  1  0  0  0  0
 56144  1  0  0  0  0
M  END
> <PUBCHEM_COMPOUND_CID>
86179502

> <PUBCHEM_COMPOUND_CANONICALIZED>
1

> <PUBCHEM_CACTVS_COMPLEXITY>
1010

> <PUBCHEM_CACTVS_HBOND_ACCEPTOR>
8

> <PUBCHEM_CACTVS_HBOND_DONOR>
8

> <PUBCHEM_CACTVS_ROTATABLE_BOND>
0

> <PUBCHEM_CACTVS_SUBSKEYS>
AAADcfB//AAAAAAAAAAAAAAAAAAAAAAAAAAAAAAAAAAAAAAAAAAAHgAQAAAACADBgAQAAALAAAAIAAEQEAAAAAAAAAAAAIEIAAAAABIAgAAEAAAAFgCAAAEYCAAAAAAAAAAAAAAAAAAAAAAAAAAAAAAAAA==

> <PUBCHEM_IUPAC_OPENEYE_NAME>
1,8,15,22,29,36,43,50-octazacyclohexapentacontane-2,9,16,23,30,37,44,51-octone

> <PUBCHEM_IUPAC_CAS_NAME>
1,8,15,22,29,36,43,50-octazacyclohexapentacontane-2,9,16,23,30,37,44,51-octone

> <PUBCHEM_IUPAC_NAME_MARKUP>
1,8,15,22,29,36,43,50-octazacyclohexapentacontane-2,9,16,23,30,37,44,51-octone

> <PUBCHEM_IUPAC_NAME>
1,8,15,22,29,36,43,50-octazacyclohexapentacontane-2,9,16,23,30,37,44,51-octone

> <PUBCHEM_IUPAC_SYSTEMATIC_NAME>
1,8,15,22,29,36,43,50-octazacyclohexapentacontane-2,9,16,23,30,37,44,51-octone

> <PUBCHEM_IUPAC_TRADITIONAL_NAME>
1,8,15,22,29,36,43,50-octazacyclohexapentacontane-2,9,16,23,30,37,44,51-tetraquinone

> <PUBCHEM_IUPAC_INCHI>
InChI=1S/C48H88N8O8/c57-41-25-9-1-17-33-49-42(58)26-10-2-19-35-51-44(60)28-12-4-21-37-53-46(62)30-14-6-23-39-55-48(64)32-16-8-24-40-56-47(63)31-15-7-22-38-54-45(61)29-13-5-20-36-52-43(59)27-11-3-18-34-50-41/h1-40H2,(H,49,58)(H,50,57)(H,51,60)(H,52,59)(H,53,62)(H,54,61)(H,55,64)(H,56,63)

> <PUBCHEM_IUPAC_INCHIKEY>
YKCUAXROTPDRQB-UHFFFAOYSA-N

> <PUBCHEM_XLOGP3_AA>
2.6

> <PUBCHEM_EXACT_MASS>
904.67251180

> <PUBCHEM_MOLECULAR_FORMULA>
C48H88N8O8

> <PUBCHEM_MOLECULAR_WEIGHT>
905.3

> <PUBCHEM_SMILES>
C1CCC(=O)NCCCCCC(=O)NCCCCCC(=O)NCCCCCC(=O)NCCCCCC(=O)NCCCCCC(=O)NCCCCCC(=O)NCCCCCC(=O)NCC1

> <PUBCHEM_CONNECTIVITY_SMILES>
C1CCC(=O)NCCCCCC(=O)NCCCCCC(=O)NCCCCCC(=O)NCCCCCC(=O)NCCCCCC(=O)NCCCCCC(=O)NCCCCCC(=O)NCC1

> <PUBCHEM_CACTVS_TPSA>
233

> <PUBCHEM_MONOISOTOPIC_WEIGHT>
904.67251180

> <PUBCHEM_TOTAL_CHARGE>
0

> <PUBCHEM_HEAVY_ATOM_COUNT>
64

> <PUBCHEM_ATOM_DEF_STEREO_COUNT>
0

> <PUBCHEM_ATOM_UDEF_STEREO_COUNT>
0

> <PUBCHEM_BOND_DEF_STEREO_COUNT>
0

> <PUBCHEM_BOND_UDEF_STEREO_COUNT>
0

> <PUBCHEM_ISOTOPIC_ATOM_COUNT>
0

> <PUBCHEM_COMPONENT_COUNT>
1

> <PUBCHEM_CACTVS_TAUTO_COUNT>
-1

> <PUBCHEM_COORDINATE_TYPE>
1
5
255

$$$$
