86218280
  -OEChem-05122608242D

171171  0     0  0  0  0  0  0999 V2000
   17.7862   10.0817    0.0000 O   0  0  0  0  0  0  0  0  0  0  0  0
   10.2781   10.8330    0.0000 O   0  0  0  0  0  0  0  0  0  0  0  0
   23.0548    4.6800    0.0000 O   0  0  0  0  0  0  0  0  0  0  0  0
    4.0437    6.5824    0.0000 O   0  0  0  0  0  0  0  0  0  0  0  0
   23.6187   -2.8445    0.0000 O   0  0  0  0  0  0  0  0  0  0  0  0
    2.0000   -0.6812    0.0000 O   0  0  0  0  0  0  0  0  0  0  0  0
   19.2140   -8.9710    0.0000 O   0  0  0  0  0  0  0  0  0  0  0  0
    5.1034   -7.5591    0.0000 O   0  0  0  0  0  0  0  0  0  0  0  0
   11.9017  -10.8330    0.0000 O   0  0  0  0  0  0  0  0  0  0  0  0
   16.4308    9.5691    0.0000 N   0  0  0  0  0  0  0  0  0  0  0  0
   21.6871    5.1586    0.0000 N   0  0  0  0  0  0  0  0  0  0  0  0
    9.5693    9.5691    0.0000 N   0  0  0  0  0  0  0  0  0  0  0  0
   22.8786   -1.5987    0.0000 N   0  0  0  0  0  0  0  0  0  0  0  0
    4.3130    5.1586    0.0000 N   0  0  0  0  0  0  0  0  0  0  0  0
   19.4478   -7.5410    0.0000 N   0  0  0  0  0  0  0  0  0  0  0  0
    3.1216   -1.5987    0.0000 N   0  0  0  0  0  0  0  0  0  0  0  0
   13.0001   -9.8878    0.0000 N   0  0  0  0  0  0  0  0  0  0  0  0
    6.5523   -7.5410    0.0000 N   0  0  0  0  0  0  0  0  0  0  0  0
   19.8228    7.4963    0.0000 C   0  0  0  0  0  0  0  0  0  0  0  0
   13.5001   10.1616    0.0000 C   0  0  0  0  0  0  0  0  0  0  0  0
   22.9531    1.3904    0.0000 C   0  0  0  0  0  0  0  0  0  0  0  0
    6.9434    8.1391    0.0000 C   0  0  0  0  0  0  0  0  0  0  0  0
   21.4263   -5.2991    0.0000 C   0  0  0  0  0  0  0  0  0  0  0  0
    3.2207    2.3752    0.0000 C   0  0  0  0  0  0  0  0  0  0  0  0
   15.9567   -9.4421    0.0000 C   0  0  0  0  0  0  0  0  0  0  0  0
    4.0738   -4.4331    0.0000 C   0  0  0  0  0  0  0  0  0  0  0  0
    9.1037   -9.1001    0.0000 C   0  0  0  0  0  0  0  0  0  0  0  0
   20.5211    6.7805    0.0000 C   0  0  0  0  0  0  0  0  0  0  0  0
   14.4951   10.0620    0.0000 C   0  0  0  0  0  0  0  0  0  0  0  0
   23.0279    0.3932    0.0000 C   0  0  0  0  0  0  0  0  0  0  0  0
    7.7696    8.7024    0.0000 C   0  0  0  0  0  0  0  0  0  0  0  0
   20.8426   -6.1110    0.0000 C   0  0  0  0  0  0  0  0  0  0  0  0
    3.4915    3.3379    0.0000 C   0  0  0  0  0  0  0  0  0  0  0  0
   14.9877   -9.6889    0.0000 C   0  0  0  0  0  0  0  0  0  0  0  0
    3.6626   -3.5216    0.0000 C   0  0  0  0  0  0  0  0  0  0  0  0
    8.2028   -8.6662    0.0000 C   0  0  0  0  0  0  0  0  0  0  0  0
   19.0568    8.1391    0.0000 C   0  0  0  0  0  0  0  0  0  0  0  0
   12.5001   10.1616    0.0000 C   0  0  0  0  0  0  0  0  0  0  0  0
   22.7795    2.3752    0.0000 C   0  0  0  0  0  0  0  0  0  0  0  0
    6.1773    7.4963    0.0000 C   0  0  0  0  0  0  0  0  0  0  0  0
   21.9263   -4.4331    0.0000 C   0  0  0  0  0  0  0  0  0  0  0  0
    3.0470    1.3904    0.0000 C   0  0  0  0  0  0  0  0  0  0  0  0
   16.8964   -9.1001    0.0000 C   0  0  0  0  0  0  0  0  0  0  0  0
    4.5738   -5.2991    0.0000 C   0  0  0  0  0  0  0  0  0  0  0  0
   10.0434   -9.4421    0.0000 C   0  0  0  0  0  0  0  0  0  0  0  0
   15.4753    9.8639    0.0000 C   0  0  0  0  0  0  0  0  0  0  0  0
   21.1446    5.9986    0.0000 C   0  0  0  0  0  0  0  0  0  0  0  0
    8.6478    9.1807    0.0000 C   0  0  0  0  0  0  0  0  0  0  0  0
   23.0029   -0.6065    0.0000 C   0  0  0  0  0  0  0  0  0  0  0  0
    3.8568    4.2687    0.0000 C   0  0  0  0  0  0  0  0  0  0  0  0
   20.1809   -6.8608    0.0000 C   0  0  0  0  0  0  0  0  0  0  0  0
    3.3441   -2.5736    0.0000 C   0  0  0  0  0  0  0  0  0  0  0  0
   13.9988   -9.8379    0.0000 C   0  0  0  0  0  0  0  0  0  0  0  0
    7.3495   -8.1448    0.0000 C   0  0  0  0  0  0  0  0  0  0  0  0
   18.2305    8.7024    0.0000 C   0  0  0  0  0  0  0  0  0  0  0  0
   11.5050   10.0620    0.0000 C   0  0  0  0  0  0  0  0  0  0  0  0
   22.5087    3.3379    0.0000 C   0  0  0  0  0  0  0  0  0  0  0  0
    5.4791    6.7805    0.0000 C   0  0  0  0  0  0  0  0  0  0  0  0
   22.3376   -3.5216    0.0000 C   0  0  0  0  0  0  0  0  0  0  0  0
    2.9723    0.3932    0.0000 C   0  0  0  0  0  0  0  0  0  0  0  0
   17.7974   -8.6662    0.0000 C   0  0  0  0  0  0  0  0  0  0  0  0
    5.1576   -6.1110    0.0000 C   0  0  0  0  0  0  0  0  0  0  0  0
   11.0125   -9.6889    0.0000 C   0  0  0  0  0  0  0  0  0  0  0  0
   17.3523    9.1807    0.0000 C   0  0  0  0  0  0  0  0  0  0  0  0
   10.5249    9.8639    0.0000 C   0  0  0  0  0  0  0  0  0  0  0  0
   22.1433    4.2687    0.0000 C   0  0  0  0  0  0  0  0  0  0  0  0
    4.8556    5.9986    0.0000 C   0  0  0  0  0  0  0  0  0  0  0  0
   22.6561   -2.5736    0.0000 C   0  0  0  0  0  0  0  0  0  0  0  0
    2.9972   -0.6065    0.0000 C   0  0  0  0  0  0  0  0  0  0  0  0
   18.6507   -8.1448    0.0000 C   0  0  0  0  0  0  0  0  0  0  0  0
    5.8193   -6.8608    0.0000 C   0  0  0  0  0  0  0  0  0  0  0  0
   12.0013   -9.8379    0.0000 C   0  0  0  0  0  0  0  0  0  0  0  0
   20.4182    7.6692    0.0000 H   0  0  0  0  0  0  0  0  0  0  0  0
   19.4011    7.0418    0.0000 H   0  0  0  0  0  0  0  0  0  0  0  0
   13.8451   10.6767    0.0000 H   0  0  0  0  0  0  0  0  0  0  0  0
   13.4692    9.5424    0.0000 H   0  0  0  0  0  0  0  0  0  0  0  0
   23.5204    1.1401    0.0000 H   0  0  0  0  0  0  0  0  0  0  0  0
   22.3380    1.3133    0.0000 H   0  0  0  0  0  0  0  0  0  0  0  0
    6.8765    8.7555    0.0000 H   0  0  0  0  0  0  0  0  0  0  0  0
    7.3177    7.6449    0.0000 H   0  0  0  0  0  0  0  0  0  0  0  0
   21.6999   -5.8554    0.0000 H   0  0  0  0  0  0  0  0  0  0  0  0
   20.9055   -4.9627    0.0000 H   0  0  0  0  0  0  0  0  0  0  0  0
    2.7732    2.8044    0.0000 H   0  0  0  0  0  0  0  0  0  0  0  0
    3.8251    2.2373    0.0000 H   0  0  0  0  0  0  0  0  0  0  0  0
   15.8087  -10.0442    0.0000 H   0  0  0  0  0  0  0  0  0  0  0  0
   15.7740   -8.8497    0.0000 H   0  0  0  0  0  0  0  0  0  0  0  0
    3.4552   -4.3919    0.0000 H   0  0  0  0  0  0  0  0  0  0  0  0
    4.6256   -4.1502    0.0000 H   0  0  0  0  0  0  0  0  0  0  0  0
    8.6033   -9.4662    0.0000 H   0  0  0  0  0  0  0  0  0  0  0  0
    9.3446   -8.5288    0.0000 H   0  0  0  0  0  0  0  0  0  0  0  0
   21.1307    6.8932    0.0000 H   0  0  0  0  0  0  0  0  0  0  0  0
   20.0562    6.3702    0.0000 H   0  0  0  0  0  0  0  0  0  0  0  0
   14.4027    9.4490    0.0000 H   0  0  0  0  0  0  0  0  0  0  0  0
   14.8897   10.5403    0.0000 H   0  0  0  0  0  0  0  0  0  0  0  0
   23.5674    0.0877    0.0000 H   0  0  0  0  0  0  0  0  0  0  0  0
   22.4081    0.3778    0.0000 H   0  0  0  0  0  0  0  0  0  0  0  0
    8.0929    8.1734    0.0000 H   0  0  0  0  0  0  0  0  0  0  0  0
    7.7645    9.3224    0.0000 H   0  0  0  0  0  0  0  0  0  0  0  0
   21.0594   -6.6919    0.0000 H   0  0  0  0  0  0  0  0  0  0  0  0
   20.3578   -5.7245    0.0000 H   0  0  0  0  0  0  0  0  0  0  0  0
    4.0792    3.1404    0.0000 H   0  0  0  0  0  0  0  0  0  0  0  0
    3.0890    3.8095    0.0000 H   0  0  0  0  0  0  0  0  0  0  0  0
   14.7805  -10.2732    0.0000 H   0  0  0  0  0  0  0  0  0  0  0  0
   14.8648   -9.0812    0.0000 H   0  0  0  0  0  0  0  0  0  0  0  0
    4.2397   -3.2951    0.0000 H   0  0  0  0  0  0  0  0  0  0  0  0
    3.0511   -3.4190    0.0000 H   0  0  0  0  0  0  0  0  0  0  0  0
    7.6684   -8.9807    0.0000 H   0  0  0  0  0  0  0  0  0  0  0  0
    8.4993   -8.1217    0.0000 H   0  0  0  0  0  0  0  0  0  0  0  0
   19.6320    8.3704    0.0000 H   0  0  0  0  0  0  0  0  0  0  0  0
   18.6824    7.6449    0.0000 H   0  0  0  0  0  0  0  0  0  0  0  0
   12.7921   10.7085    0.0000 H   0  0  0  0  0  0  0  0  0  0  0  0
   12.5310    9.5424    0.0000 H   0  0  0  0  0  0  0  0  0  0  0  0
   23.3688    2.1827    0.0000 H   0  0  0  0  0  0  0  0  0  0  0  0
   22.1750    2.2373    0.0000 H   0  0  0  0  0  0  0  0  0  0  0  0
    6.0494    8.1030    0.0000 H   0  0  0  0  0  0  0  0  0  0  0  0
    6.5990    7.0418    0.0000 H   0  0  0  0  0  0  0  0  0  0  0  0
   22.2540   -4.9594    0.0000 H   0  0  0  0  0  0  0  0  0  0  0  0
   21.3746   -4.1502    0.0000 H   0  0  0  0  0  0  0  0  0  0  0  0
    2.5591    1.7730    0.0000 H   0  0  0  0  0  0  0  0  0  0  0  0
    3.6622    1.3133    0.0000 H   0  0  0  0  0  0  0  0  0  0  0  0
   16.8091   -9.7139    0.0000 H   0  0  0  0  0  0  0  0  0  0  0  0
   16.6556   -8.5288    0.0000 H   0  0  0  0  0  0  0  0  0  0  0  0
    3.9542   -5.3197    0.0000 H   0  0  0  0  0  0  0  0  0  0  0  0
    5.0947   -4.9627    0.0000 H   0  0  0  0  0  0  0  0  0  0  0  0
    9.5820   -9.8562    0.0000 H   0  0  0  0  0  0  0  0  0  0  0  0
   10.2262   -8.8497    0.0000 H   0  0  0  0  0  0  0  0  0  0  0  0
   15.9155   10.3005    0.0000 H   0  0  0  0  0  0  0  0  0  0  0  0
   15.3223    9.2631    0.0000 H   0  0  0  0  0  0  0  0  0  0  0  0
   21.7624    6.0501    0.0000 H   0  0  0  0  0  0  0  0  0  0  0  0
   20.6412    5.6367    0.0000 H   0  0  0  0  0  0  0  0  0  0  0  0
    8.7044    9.7981    0.0000 H   0  0  0  0  0  0  0  0  0  0  0  0
    8.9168    8.6221    0.0000 H   0  0  0  0  0  0  0  0  0  0  0  0
   23.5093   -0.9642    0.0000 H   0  0  0  0  0  0  0  0  0  0  0  0
   22.3847   -0.5601    0.0000 H   0  0  0  0  0  0  0  0  0  0  0  0
    3.5033    4.7781    0.0000 H   0  0  0  0  0  0  0  0  0  0  0  0
    4.4220    4.0137    0.0000 H   0  0  0  0  0  0  0  0  0  0  0  0
   20.3389   -7.4604    0.0000 H   0  0  0  0  0  0  0  0  0  0  0  0
   19.7370   -6.4279    0.0000 H   0  0  0  0  0  0  0  0  0  0  0  0
    2.7459   -2.4107    0.0000 H   0  0  0  0  0  0  0  0  0  0  0  0
    3.9409   -2.4057    0.0000 H   0  0  0  0  0  0  0  0  0  0  0  0
   13.7345  -10.3987    0.0000 H   0  0  0  0  0  0  0  0  0  0  0  0
   13.9371   -9.2210    0.0000 H   0  0  0  0  0  0  0  0  0  0  0  0
    6.7865   -8.4045    0.0000 H   0  0  0  0  0  0  0  0  0  0  0  0
    7.6987   -7.6325    0.0000 H   0  0  0  0  0  0  0  0  0  0  0  0
   18.7799    8.9899    0.0000 H   0  0  0  0  0  0  0  0  0  0  0  0
   17.9073    8.1734    0.0000 H   0  0  0  0  0  0  0  0  0  0  0  0
   11.7411   10.6353    0.0000 H   0  0  0  0  0  0  0  0  0  0  0  0
   11.5974    9.4490    0.0000 H   0  0  0  0  0  0  0  0  0  0  0  0
   23.1142    3.2049    0.0000 H   0  0  0  0  0  0  0  0  0  0  0  0
   21.9209    3.1404    0.0000 H   0  0  0  0  0  0  0  0  0  0  0  0
    5.2914    7.3714    0.0000 H   0  0  0  0  0  0  0  0  0  0  0  0
    5.9439    6.3702    0.0000 H   0  0  0  0  0  0  0  0  0  0  0  0
   22.7160   -4.0127    0.0000 H   0  0  0  0  0  0  0  0  0  0  0  0
   21.7605   -3.2951    0.0000 H   0  0  0  0  0  0  0  0  0  0  0  0
    2.4487    0.7253    0.0000 H   0  0  0  0  0  0  0  0  0  0  0  0
    3.5921    0.3778    0.0000 H   0  0  0  0  0  0  0  0  0  0  0  0
   17.7716   -9.2857    0.0000 H   0  0  0  0  0  0  0  0  0  0  0  0
   17.5009   -8.1217    0.0000 H   0  0  0  0  0  0  0  0  0  0  0  0
    4.5431   -6.1932    0.0000 H   0  0  0  0  0  0  0  0  0  0  0  0
    5.6423   -5.7245    0.0000 H   0  0  0  0  0  0  0  0  0  0  0  0
   10.5946  -10.1469    0.0000 H   0  0  0  0  0  0  0  0  0  0  0  0
   11.1353   -9.0812    0.0000 H   0  0  0  0  0  0  0  0  0  0  0  0
   16.6429   10.1517    0.0000 H   0  0  0  0  0  0  0  0  0  0  0  0
   22.2240    5.4686    0.0000 H   0  0  0  0  0  0  0  0  0  0  0  0
    9.3572   10.1517    0.0000 H   0  0  0  0  0  0  0  0  0  0  0  0
   23.4892   -1.7064    0.0000 H   0  0  0  0  0  0  0  0  0  0  0  0
    3.7761    5.4686    0.0000 H   0  0  0  0  0  0  0  0  0  0  0  0
   19.8464   -8.0159    0.0000 H   0  0  0  0  0  0  0  0  0  0  0  0
    2.5110   -1.7064    0.0000 H   0  0  0  0  0  0  0  0  0  0  0  0
   13.0001  -10.5078    0.0000 H   0  0  0  0  0  0  0  0  0  0  0  0
    6.1538   -8.0159    0.0000 H   0  0  0  0  0  0  0  0  0  0  0  0
  1 64  2  0  0  0  0
  2 65  2  0  0  0  0
  3 66  2  0  0  0  0
  4 67  2  0  0  0  0
  5 68  2  0  0  0  0
  6 69  2  0  0  0  0
  7 70  2  0  0  0  0
  8 71  2  0  0  0  0
  9 72  2  0  0  0  0
 10 46  1  0  0  0  0
 10 64  1  0  0  0  0
 10163  1  0  0  0  0
 11 47  1  0  0  0  0
 11 66  1  0  0  0  0
 11164  1  0  0  0  0
 12 48  1  0  0  0  0
 12 65  1  0  0  0  0
 12165  1  0  0  0  0
 13 49  1  0  0  0  0
 13 68  1  0  0  0  0
 13166  1  0  0  0  0
 14 50  1  0  0  0  0
 14 67  1  0  0  0  0
 14167  1  0  0  0  0
 15 51  1  0  0  0  0
 15 70  1  0  0  0  0
 15168  1  0  0  0  0
 16 52  1  0  0  0  0
 16 69  1  0  0  0  0
 16169  1  0  0  0  0
 17 53  1  0  0  0  0
 17 72  1  0  0  0  0
 17170  1  0  0  0  0
 18 54  1  0  0  0  0
 18 71  1  0  0  0  0
 18171  1  0  0  0  0
 19 28  1  0  0  0  0
 19 37  1  0  0  0  0
 19 73  1  0  0  0  0
 19 74  1  0  0  0  0
 20 29  1  0  0  0  0
 20 38  1  0  0  0  0
 20 75  1  0  0  0  0
 20 76  1  0  0  0  0
 21 30  1  0  0  0  0
 21 39  1  0  0  0  0
 21 77  1  0  0  0  0
 21 78  1  0  0  0  0
 22 31  1  0  0  0  0
 22 40  1  0  0  0  0
 22 79  1  0  0  0  0
 22 80  1  0  0  0  0
 23 32  1  0  0  0  0
 23 41  1  0  0  0  0
 23 81  1  0  0  0  0
 23 82  1  0  0  0  0
 24 33  1  0  0  0  0
 24 42  1  0  0  0  0
 24 83  1  0  0  0  0
 24 84  1  0  0  0  0
 25 34  1  0  0  0  0
 25 43  1  0  0  0  0
 25 85  1  0  0  0  0
 25 86  1  0  0  0  0
 26 35  1  0  0  0  0
 26 44  1  0  0  0  0
 26 87  1  0  0  0  0
 26 88  1  0  0  0  0
 27 36  1  0  0  0  0
 27 45  1  0  0  0  0
 27 89  1  0  0  0  0
 27 90  1  0  0  0  0
 28 47  1  0  0  0  0
 28 91  1  0  0  0  0
 28 92  1  0  0  0  0
 29 46  1  0  0  0  0
 29 93  1  0  0  0  0
 29 94  1  0  0  0  0
 30 49  1  0  0  0  0
 30 95  1  0  0  0  0
 30 96  1  0  0  0  0
 31 48  1  0  0  0  0
 31 97  1  0  0  0  0
 31 98  1  0  0  0  0
 32 51  1  0  0  0  0
 32 99  1  0  0  0  0
 32100  1  0  0  0  0
 33 50  1  0  0  0  0
 33101  1  0  0  0  0
 33102  1  0  0  0  0
 34 53  1  0  0  0  0
 34103  1  0  0  0  0
 34104  1  0  0  0  0
 35 52  1  0  0  0  0
 35105  1  0  0  0  0
 35106  1  0  0  0  0
 36 54  1  0  0  0  0
 36107  1  0  0  0  0
 36108  1  0  0  0  0
 37 55  1  0  0  0  0
 37109  1  0  0  0  0
 37110  1  0  0  0  0
 38 56  1  0  0  0  0
 38111  1  0  0  0  0
 38112  1  0  0  0  0
 39 57  1  0  0  0  0
 39113  1  0  0  0  0
 39114  1  0  0  0  0
 40 58  1  0  0  0  0
 40115  1  0  0  0  0
 40116  1  0  0  0  0
 41 59  1  0  0  0  0
 41117  1  0  0  0  0
 41118  1  0  0  0  0
 42 60  1  0  0  0  0
 42119  1  0  0  0  0
 42120  1  0  0  0  0
 43 61  1  0  0  0  0
 43121  1  0  0  0  0
 43122  1  0  0  0  0
 44 62  1  0  0  0  0
 44123  1  0  0  0  0
 44124  1  0  0  0  0
 45 63  1  0  0  0  0
 45125  1  0  0  0  0
 45126  1  0  0  0  0
 46127  1  0  0  0  0
 46128  1  0  0  0  0
 47129  1  0  0  0  0
 47130  1  0  0  0  0
 48131  1  0  0  0  0
 48132  1  0  0  0  0
 49133  1  0  0  0  0
 49134  1  0  0  0  0
 50135  1  0  0  0  0
 50136  1  0  0  0  0
 51137  1  0  0  0  0
 51138  1  0  0  0  0
 52139  1  0  0  0  0
 52140  1  0  0  0  0
 53141  1  0  0  0  0
 53142  1  0  0  0  0
 54143  1  0  0  0  0
 54144  1  0  0  0  0
 55 64  1  0  0  0  0
 55145  1  0  0  0  0
 55146  1  0  0  0  0
 56 65  1  0  0  0  0
 56147  1  0  0  0  0
 56148  1  0  0  0  0
 57 66  1  0  0  0  0
 57149  1  0  0  0  0
 57150  1  0  0  0  0
 58 67  1  0  0  0  0
 58151  1  0  0  0  0
 58152  1  0  0  0  0
 59 68  1  0  0  0  0
 59153  1  0  0  0  0
 59154  1  0  0  0  0
 60 69  1  0  0  0  0
 60155  1  0  0  0  0
 60156  1  0  0  0  0
 61 70  1  0  0  0  0
 61157  1  0  0  0  0
 61158  1  0  0  0  0
 62 71  1  0  0  0  0
 62159  1  0  0  0  0
 62160  1  0  0  0  0
 63 72  1  0  0  0  0
 63161  1  0  0  0  0
 63162  1  0  0  0  0
M  END
> <PUBCHEM_COMPOUND_CID>
86218280

> <PUBCHEM_COMPOUND_CANONICALIZED>
1

> <PUBCHEM_CACTVS_COMPLEXITY>
1160

> <PUBCHEM_CACTVS_HBOND_ACCEPTOR>
9

> <PUBCHEM_CACTVS_HBOND_DONOR>
9

> <PUBCHEM_CACTVS_ROTATABLE_BOND>
0

> <PUBCHEM_CACTVS_SUBSKEYS>
AAADcfB//AAAAAAAAAAAAAAAAAAAAAAAAAAAAAAAAAAAAAAAAAAAHgAQAAAACADBgAQAAALAAAAIAAEQEAAAAAAAAAAAAIEIAAAAABIAgAAEAAAAFgCAAAEYCAAAAAAAAAAAAAAAAAAAAAAAAAAAAAAAAA==

> <PUBCHEM_IUPAC_OPENEYE_NAME>
1,8,15,22,29,36,43,50,57-nonazacyclotrihexacontane-2,9,16,23,30,37,44,51,58-nonone

> <PUBCHEM_IUPAC_CAS_NAME>
1,8,15,22,29,36,43,50,57-nonazacyclotrihexacontane-2,9,16,23,30,37,44,51,58-nonone

> <PUBCHEM_IUPAC_NAME_MARKUP>
1,8,15,22,29,36,43,50,57-nonazacyclotrihexacontane-2,9,16,23,30,37,44,51,58-nonone

> <PUBCHEM_IUPAC_NAME>
1,8,15,22,29,36,43,50,57-nonazacyclotrihexacontane-2,9,16,23,30,37,44,51,58-nonone

> <PUBCHEM_IUPAC_SYSTEMATIC_NAME>
1,8,15,22,29,36,43,50,57-nonazacyclotrihexacontane-2,9,16,23,30,37,44,51,58-nonone

> <PUBCHEM_IUPAC_TRADITIONAL_NAME>
1,8,15,22,29,36,43,50,57-nonazacyclotrihexacontane-2,9,16,23,30,37,44,51,58-nonone

> <PUBCHEM_IUPAC_INCHI>
InChI=1S/C54H99N9O9/c64-46-28-10-1-19-37-55-47(65)29-11-2-21-39-57-49(67)31-13-4-23-41-59-51(69)33-15-6-25-43-61-53(71)35-17-8-27-45-63-54(72)36-18-9-26-44-62-52(70)34-16-7-24-42-60-50(68)32-14-5-22-40-58-48(66)30-12-3-20-38-56-46/h1-45H2,(H,55,65)(H,56,64)(H,57,67)(H,58,66)(H,59,69)(H,60,68)(H,61,71)(H,62,70)(H,63,72)

> <PUBCHEM_IUPAC_INCHIKEY>
MAOZJXOTBLOGNP-UHFFFAOYSA-N

> <PUBCHEM_XLOGP3_AA>
2.9

> <PUBCHEM_EXACT_MASS>
1017.75657577

> <PUBCHEM_MOLECULAR_FORMULA>
C54H99N9O9

> <PUBCHEM_MOLECULAR_WEIGHT>
1018.4

> <PUBCHEM_SMILES>
C1CCC(=O)NCCCCCC(=O)NCCCCCC(=O)NCCCCCC(=O)NCCCCCC(=O)NCCCCCC(=O)NCCCCCC(=O)NCCCCCC(=O)NCCCCCC(=O)NCC1

> <PUBCHEM_CONNECTIVITY_SMILES>
C1CCC(=O)NCCCCCC(=O)NCCCCCC(=O)NCCCCCC(=O)NCCCCCC(=O)NCCCCCC(=O)NCCCCCC(=O)NCCCCCC(=O)NCCCCCC(=O)NCC1

> <PUBCHEM_CACTVS_TPSA>
262

> <PUBCHEM_MONOISOTOPIC_WEIGHT>
1017.75657577

> <PUBCHEM_TOTAL_CHARGE>
0

> <PUBCHEM_HEAVY_ATOM_COUNT>
72

> <PUBCHEM_ATOM_DEF_STEREO_COUNT>
0

> <PUBCHEM_ATOM_UDEF_STEREO_COUNT>
0

> <PUBCHEM_BOND_DEF_STEREO_COUNT>
0

> <PUBCHEM_BOND_UDEF_STEREO_COUNT>
0

> <PUBCHEM_ISOTOPIC_ATOM_COUNT>
0

> <PUBCHEM_COMPONENT_COUNT>
1

> <PUBCHEM_CACTVS_TAUTO_COUNT>
-1

> <PUBCHEM_COORDINATE_TYPE>
1
5
255

$$$$
