87747876
  -OEChem-05122609572D

107108  0     0  0  0  0  0  0999 V2000
    2.8660    6.0000    0.0000 O   0  0  0  0  0  0  0  0  0  0  0  0
   13.2583   -6.0000    0.0000 O   0  0  0  0  0  0  0  0  0  0  0  0
    7.1962    1.5000    0.0000 O   0  0  0  0  0  0  0  0  0  0  0  0
    8.9282   -1.5000    0.0000 O   0  0  0  0  0  0  0  0  0  0  0  0
    9.5622    0.8660    0.0000 O   0  0  0  0  0  0  0  0  0  0  0  0
    6.5622   -0.8660    0.0000 O   0  0  0  0  0  0  0  0  0  0  0  0
    8.0622    3.0000    0.0000 O   0  0  0  0  0  0  0  0  0  0  0  0
    8.0622   -3.0000    0.0000 O   0  0  0  0  0  0  0  0  0  0  0  0
    2.8660    4.0000    0.0000 C   0  0  0  0  0  0  0  0  0  0  0  0
   11.5263   -7.0000    0.0000 C   0  0  0  0  0  0  0  0  0  0  0  0
    4.5981    7.0000    0.0000 C   0  0  0  0  0  0  0  0  0  0  0  0
   13.2583   -4.0000    0.0000 C   0  0  0  0  0  0  0  0  0  0  0  0
    3.7321    4.5000    0.0000 C   0  0  0  0  0  0  0  0  0  0  0  0
   11.5263   -6.0000    0.0000 C   0  0  0  0  0  0  0  0  0  0  0  0
    4.5981    6.0000    0.0000 C   0  0  0  0  0  0  0  0  0  0  0  0
   12.3923   -4.5000    0.0000 C   0  0  0  0  0  0  0  0  0  0  0  0
    3.7321    5.5000    0.0000 C   0  0  0  0  0  0  0  0  0  0  0  0
   12.3923   -5.5000    0.0000 C   0  0  0  0  0  0  0  0  0  0  0  0
    8.0622    0.0000    0.0000 C   0  0  0  0  0  0  0  0  0  0  0  0
    5.4641    4.5000    0.0000 C   0  0  0  0  0  0  0  0  0  0  0  0
   10.6603   -4.5000    0.0000 C   0  0  0  0  0  0  0  0  0  0  0  0
    4.5981    4.0000    0.0000 C   0  0  0  0  0  0  0  0  0  0  0  0
   10.6603   -5.5000    0.0000 C   0  0  0  0  0  0  0  0  0  0  0  0
    5.4641    5.5000    0.0000 C   0  0  0  0  0  0  0  0  0  0  0  0
   11.5263   -4.0000    0.0000 C   0  0  0  0  0  0  0  0  0  0  0  0
    2.0000    3.5000    0.0000 C   0  0  0  0  0  0  0  0  0  0  0  0
    3.3660    3.1340    0.0000 C   0  0  0  0  0  0  0  0  0  0  0  0
    2.3660    4.8660    0.0000 C   0  0  0  0  0  0  0  0  0  0  0  0
   11.5263   -8.0000    0.0000 C   0  0  0  0  0  0  0  0  0  0  0  0
   10.5263   -7.0000    0.0000 C   0  0  0  0  0  0  0  0  0  0  0  0
   12.5263   -7.0000    0.0000 C   0  0  0  0  0  0  0  0  0  0  0  0
    4.5981    8.0000    0.0000 C   0  0  0  0  0  0  0  0  0  0  0  0
    5.5981    7.0000    0.0000 C   0  0  0  0  0  0  0  0  0  0  0  0
    3.5981    7.0000    0.0000 C   0  0  0  0  0  0  0  0  0  0  0  0
   14.1244   -3.5000    0.0000 C   0  0  0  0  0  0  0  0  0  0  0  0
   12.7583   -3.1340    0.0000 C   0  0  0  0  0  0  0  0  0  0  0  0
   13.7583   -4.8660    0.0000 C   0  0  0  0  0  0  0  0  0  0  0  0
    6.3301    4.0000    0.0000 C   0  0  0  0  0  0  0  0  0  0  0  0
    9.7942   -4.0000    0.0000 C   0  0  0  0  0  0  0  0  0  0  0  0
    8.0622    1.0000    0.0000 C   0  0  0  0  0  0  0  0  0  0  0  0
    8.0622   -1.0000    0.0000 C   0  0  0  0  0  0  0  0  0  0  0  0
    9.0622    0.0000    0.0000 C   0  0  0  0  0  0  0  0  0  0  0  0
    7.0622    0.0000    0.0000 C   0  0  0  0  0  0  0  0  0  0  0  0
    6.3301    3.0000    0.0000 C   0  0  0  0  0  0  0  0  0  0  0  0
    9.7942   -3.0000    0.0000 C   0  0  0  0  0  0  0  0  0  0  0  0
    7.1962    2.5000    0.0000 C   0  0  0  0  0  0  0  0  0  0  0  0
    8.9282   -2.5000    0.0000 C   0  0  0  0  0  0  0  0  0  0  0  0
    4.5981    3.3800    0.0000 H   0  0  0  0  0  0  0  0  0  0  0  0
   10.1233   -5.8100    0.0000 H   0  0  0  0  0  0  0  0  0  0  0  0
    6.0010    5.8100    0.0000 H   0  0  0  0  0  0  0  0  0  0  0  0
   11.5263   -3.3800    0.0000 H   0  0  0  0  0  0  0  0  0  0  0  0
    1.6900    4.0369    0.0000 H   0  0  0  0  0  0  0  0  0  0  0  0
    1.4631    3.1900    0.0000 H   0  0  0  0  0  0  0  0  0  0  0  0
    2.3100    2.9631    0.0000 H   0  0  0  0  0  0  0  0  0  0  0  0
    2.8291    2.8240    0.0000 H   0  0  0  0  0  0  0  0  0  0  0  0
    3.6760    2.5970    0.0000 H   0  0  0  0  0  0  0  0  0  0  0  0
    3.9030    3.4440    0.0000 H   0  0  0  0  0  0  0  0  0  0  0  0
    2.9030    5.1760    0.0000 H   0  0  0  0  0  0  0  0  0  0  0  0
    2.0560    5.4030    0.0000 H   0  0  0  0  0  0  0  0  0  0  0  0
    1.8291    4.5560    0.0000 H   0  0  0  0  0  0  0  0  0  0  0  0
   10.9063   -8.0000    0.0000 H   0  0  0  0  0  0  0  0  0  0  0  0
   11.5263   -8.6200    0.0000 H   0  0  0  0  0  0  0  0  0  0  0  0
   12.1463   -8.0000    0.0000 H   0  0  0  0  0  0  0  0  0  0  0  0
   10.5263   -6.3800    0.0000 H   0  0  0  0  0  0  0  0  0  0  0  0
    9.9063   -7.0000    0.0000 H   0  0  0  0  0  0  0  0  0  0  0  0
   10.5263   -7.6200    0.0000 H   0  0  0  0  0  0  0  0  0  0  0  0
   12.5263   -7.6200    0.0000 H   0  0  0  0  0  0  0  0  0  0  0  0
   13.1463   -7.0000    0.0000 H   0  0  0  0  0  0  0  0  0  0  0  0
   12.5263   -6.3800    0.0000 H   0  0  0  0  0  0  0  0  0  0  0  0
    5.2181    8.0000    0.0000 H   0  0  0  0  0  0  0  0  0  0  0  0
    4.5981    8.6200    0.0000 H   0  0  0  0  0  0  0  0  0  0  0  0
    3.9781    8.0000    0.0000 H   0  0  0  0  0  0  0  0  0  0  0  0
    5.5981    6.3800    0.0000 H   0  0  0  0  0  0  0  0  0  0  0  0
    6.2181    7.0000    0.0000 H   0  0  0  0  0  0  0  0  0  0  0  0
    5.5981    7.6200    0.0000 H   0  0  0  0  0  0  0  0  0  0  0  0
    3.5981    7.6200    0.0000 H   0  0  0  0  0  0  0  0  0  0  0  0
    2.9781    7.0000    0.0000 H   0  0  0  0  0  0  0  0  0  0  0  0
    3.5981    6.3800    0.0000 H   0  0  0  0  0  0  0  0  0  0  0  0
   14.4344   -4.0369    0.0000 H   0  0  0  0  0  0  0  0  0  0  0  0
   14.6613   -3.1900    0.0000 H   0  0  0  0  0  0  0  0  0  0  0  0
   13.8144   -2.9631    0.0000 H   0  0  0  0  0  0  0  0  0  0  0  0
   13.2953   -2.8240    0.0000 H   0  0  0  0  0  0  0  0  0  0  0  0
   12.4483   -2.5970    0.0000 H   0  0  0  0  0  0  0  0  0  0  0  0
   12.2214   -3.4440    0.0000 H   0  0  0  0  0  0  0  0  0  0  0  0
   13.2214   -5.1760    0.0000 H   0  0  0  0  0  0  0  0  0  0  0  0
   14.0683   -5.4030    0.0000 H   0  0  0  0  0  0  0  0  0  0  0  0
   14.2953   -4.5560    0.0000 H   0  0  0  0  0  0  0  0  0  0  0  0
    6.9407    3.8923    0.0000 H   0  0  0  0  0  0  0  0  0  0  0  0
    6.5422    4.5826    0.0000 H   0  0  0  0  0  0  0  0  0  0  0  0
    9.1837   -3.8923    0.0000 H   0  0  0  0  0  0  0  0  0  0  0  0
    9.5822   -4.5826    0.0000 H   0  0  0  0  0  0  0  0  0  0  0  0
    8.6728    0.8923    0.0000 H   0  0  0  0  0  0  0  0  0  0  0  0
    8.2742    1.5826    0.0000 H   0  0  0  0  0  0  0  0  0  0  0  0
    7.4516   -0.8923    0.0000 H   0  0  0  0  0  0  0  0  0  0  0  0
    7.8501   -1.5826    0.0000 H   0  0  0  0  0  0  0  0  0  0  0  0
    8.9545   -0.6106    0.0000 H   0  0  0  0  0  0  0  0  0  0  0  0
    9.6448   -0.2121    0.0000 H   0  0  0  0  0  0  0  0  0  0  0  0
    7.1698    0.6106    0.0000 H   0  0  0  0  0  0  0  0  0  0  0  0
    6.4796    0.2121    0.0000 H   0  0  0  0  0  0  0  0  0  0  0  0
    5.7196    3.1077    0.0000 H   0  0  0  0  0  0  0  0  0  0  0  0
    6.1181    2.4174    0.0000 H   0  0  0  0  0  0  0  0  0  0  0  0
   10.4048   -3.1077    0.0000 H   0  0  0  0  0  0  0  0  0  0  0  0
   10.0063   -2.4174    0.0000 H   0  0  0  0  0  0  0  0  0  0  0  0
    2.8660    6.6200    0.0000 H   0  0  0  0  0  0  0  0  0  0  0  0
   13.2583   -6.6200    0.0000 H   0  0  0  0  0  0  0  0  0  0  0  0
   10.1822    0.8660    0.0000 H   0  0  0  0  0  0  0  0  0  0  0  0
    5.9422   -0.8660    0.0000 H   0  0  0  0  0  0  0  0  0  0  0  0
  1 17  1  0  0  0  0
  1104  1  0  0  0  0
  2 18  1  0  0  0  0
  2105  1  0  0  0  0
  3 40  1  0  0  0  0
  3 46  1  0  0  0  0
  4 41  1  0  0  0  0
  4 47  1  0  0  0  0
  5 42  1  0  0  0  0
  5106  1  0  0  0  0
  6 43  1  0  0  0  0
  6107  1  0  0  0  0
  7 46  2  0  0  0  0
  8 47  2  0  0  0  0
  9 13  1  0  0  0  0
  9 26  1  0  0  0  0
  9 27  1  0  0  0  0
  9 28  1  0  0  0  0
 10 14  1  0  0  0  0
 10 29  1  0  0  0  0
 10 30  1  0  0  0  0
 10 31  1  0  0  0  0
 11 15  1  0  0  0  0
 11 32  1  0  0  0  0
 11 33  1  0  0  0  0
 11 34  1  0  0  0  0
 12 16  1  0  0  0  0
 12 35  1  0  0  0  0
 12 36  1  0  0  0  0
 12 37  1  0  0  0  0
 13 17  2  0  0  0  0
 13 22  1  0  0  0  0
 14 18  2  0  0  0  0
 14 23  1  0  0  0  0
 15 17  1  0  0  0  0
 15 24  2  0  0  0  0
 16 18  1  0  0  0  0
 16 25  2  0  0  0  0
 19 40  1  0  0  0  0
 19 41  1  0  0  0  0
 19 42  1  0  0  0  0
 19 43  1  0  0  0  0
 20 22  2  0  0  0  0
 20 24  1  0  0  0  0
 20 38  1  0  0  0  0
 21 23  2  0  0  0  0
 21 25  1  0  0  0  0
 21 39  1  0  0  0  0
 22 48  1  0  0  0  0
 23 49  1  0  0  0  0
 24 50  1  0  0  0  0
 25 51  1  0  0  0  0
 26 52  1  0  0  0  0
 26 53  1  0  0  0  0
 26 54  1  0  0  0  0
 27 55  1  0  0  0  0
 27 56  1  0  0  0  0
 27 57  1  0  0  0  0
 28 58  1  0  0  0  0
 28 59  1  0  0  0  0
 28 60  1  0  0  0  0
 29 61  1  0  0  0  0
 29 62  1  0  0  0  0
 29 63  1  0  0  0  0
 30 64  1  0  0  0  0
 30 65  1  0  0  0  0
 30 66  1  0  0  0  0
 31 67  1  0  0  0  0
 31 68  1  0  0  0  0
 31 69  1  0  0  0  0
 32 70  1  0  0  0  0
 32 71  1  0  0  0  0
 32 72  1  0  0  0  0
 33 73  1  0  0  0  0
 33 74  1  0  0  0  0
 33 75  1  0  0  0  0
 34 76  1  0  0  0  0
 34 77  1  0  0  0  0
 34 78  1  0  0  0  0
 35 79  1  0  0  0  0
 35 80  1  0  0  0  0
 35 81  1  0  0  0  0
 36 82  1  0  0  0  0
 36 83  1  0  0  0  0
 36 84  1  0  0  0  0
 37 85  1  0  0  0  0
 37 86  1  0  0  0  0
 37 87  1  0  0  0  0
 38 44  1  0  0  0  0
 38 88  1  0  0  0  0
 38 89  1  0  0  0  0
 39 45  1  0  0  0  0
 39 90  1  0  0  0  0
 39 91  1  0  0  0  0
 40 92  1  0  0  0  0
 40 93  1  0  0  0  0
 41 94  1  0  0  0  0
 41 95  1  0  0  0  0
 42 96  1  0  0  0  0
 42 97  1  0  0  0  0
 43 98  1  0  0  0  0
 43 99  1  0  0  0  0
 44 46  1  0  0  0  0
 44100  1  0  0  0  0
 44101  1  0  0  0  0
 45 47  1  0  0  0  0
 45102  1  0  0  0  0
 45103  1  0  0  0  0
M  END
> <PUBCHEM_COMPOUND_CID>
87747876

> <PUBCHEM_COMPOUND_CANONICALIZED>
1

> <PUBCHEM_CACTVS_COMPLEXITY>
866

> <PUBCHEM_CACTVS_HBOND_ACCEPTOR>
8

> <PUBCHEM_CACTVS_HBOND_DONOR>
4

> <PUBCHEM_CACTVS_ROTATABLE_BOND>
18

> <PUBCHEM_CACTVS_SUBSKEYS>
AAADcfB8PAAAAAAAAAAAAAAAAAAAAAAAAAAwYAAAAAAAAAABQAAAGgAACAAADgSgmAIyDoAABgCIAiDSCAACAAAgIAAAiAEECIgINjKCERKCcAAlwBEImAeIyOCPoAACAAAIAABAAAQAABAAAAAAAAAAAA==

> <PUBCHEM_IUPAC_OPENEYE_NAME>
[2-[3-(3,5-ditert-butyl-4-hydroxy-phenyl)propanoyloxymethyl]-3-hydroxy-2-(hydroxymethyl)propyl] 3-(3,5-ditert-butyl-4-hydroxy-phenyl)propanoate

> <PUBCHEM_IUPAC_CAS_NAME>
3-(3,5-ditert-butyl-4-hydroxyphenyl)propanoic acid [2-[[3-(3,5-ditert-butyl-4-hydroxyphenyl)-1-oxopropoxy]methyl]-3-hydroxy-2-(hydroxymethyl)propyl] ester

> <PUBCHEM_IUPAC_NAME_MARKUP>
[2-[3-(3,5-di<I>tert</I>-butyl-4-hydroxyphenyl)propanoyloxymethyl]-3-hydroxy-2-(hydroxymethyl)propyl] 3-(3,5-di<I>tert</I>-butyl-4-hydroxyphenyl)propanoate

> <PUBCHEM_IUPAC_NAME>
[2-[3-(3,5-ditert-butyl-4-hydroxyphenyl)propanoyloxymethyl]-3-hydroxy-2-(hydroxymethyl)propyl] 3-(3,5-ditert-butyl-4-hydroxyphenyl)propanoate

> <PUBCHEM_IUPAC_SYSTEMATIC_NAME>
[2-[3-(3,5-ditert-butyl-4-oxidanyl-phenyl)propanoyloxymethyl]-2-(hydroxymethyl)-3-oxidanyl-propyl] 3-(3,5-ditert-butyl-4-oxidanyl-phenyl)propanoate

> <PUBCHEM_IUPAC_TRADITIONAL_NAME>
3-(3,5-ditert-butyl-4-hydroxy-phenyl)propionic acid [2-[3-(3,5-ditert-butyl-4-hydroxy-phenyl)propanoyloxymethyl]-3-hydroxy-2-methylol-propyl] ester

> <PUBCHEM_IUPAC_INCHI>
InChI=1S/C39H60O8/c1-35(2,3)27-17-25(18-28(33(27)44)36(4,5)6)13-15-31(42)46-23-39(21-40,22-41)24-47-32(43)16-14-26-19-29(37(7,8)9)34(45)30(20-26)38(10,11)12/h17-20,40-41,44-45H,13-16,21-24H2,1-12H3

> <PUBCHEM_IUPAC_INCHIKEY>
MFSAJLWSXLIOHZ-UHFFFAOYSA-N

> <PUBCHEM_XLOGP3_AA>
8.5

> <PUBCHEM_EXACT_MASS>
656.42881887

> <PUBCHEM_MOLECULAR_FORMULA>
C39H60O8

> <PUBCHEM_MOLECULAR_WEIGHT>
656.9

> <PUBCHEM_SMILES>
CC(C)(C)C1=CC(=CC(=C1O)C(C)(C)C)CCC(=O)OCC(CO)(CO)COC(=O)CCC2=CC(=C(C(=C2)C(C)(C)C)O)C(C)(C)C

> <PUBCHEM_CONNECTIVITY_SMILES>
CC(C)(C)C1=CC(=CC(=C1O)C(C)(C)C)CCC(=O)OCC(CO)(CO)COC(=O)CCC2=CC(=C(C(=C2)C(C)(C)C)O)C(C)(C)C

> <PUBCHEM_CACTVS_TPSA>
134

> <PUBCHEM_MONOISOTOPIC_WEIGHT>
656.42881887

> <PUBCHEM_TOTAL_CHARGE>
0

> <PUBCHEM_HEAVY_ATOM_COUNT>
47

> <PUBCHEM_ATOM_DEF_STEREO_COUNT>
0

> <PUBCHEM_ATOM_UDEF_STEREO_COUNT>
0

> <PUBCHEM_BOND_DEF_STEREO_COUNT>
0

> <PUBCHEM_BOND_UDEF_STEREO_COUNT>
0

> <PUBCHEM_ISOTOPIC_ATOM_COUNT>
0

> <PUBCHEM_COMPONENT_COUNT>
1

> <PUBCHEM_CACTVS_TAUTO_COUNT>
-1

> <PUBCHEM_COORDINATE_TYPE>
1
5
255

> <PUBCHEM_BONDANNOTATIONS>
13  17  8
13  22  8
14  18  8
14  23  8
15  17  8
15  24  8
16  18  8
16  25  8
20  22  8
20  24  8
21  23  8
21  25  8

$$$$
