87842193
  -OEChem-05122608162D

 21 19  0     0  0  0  0  0  0999 V2000
    3.7321   -1.2500    0.0000 S   0  0  0  0  0  0  0  0  0  0  0  0
    2.0000   -1.2500    0.0000 Na  0  3  0  0  0  0  0  0  0  0  0  0
    4.9641    0.6160    0.0000 F   0  0  0  0  0  0  0  0  0  0  0  0
    5.9641   -1.1160    0.0000 F   0  0  0  0  0  0  0  0  0  0  0  0
    5.8301    1.1160    0.0000 F   0  0  0  0  0  0  0  0  0  0  0  0
    6.8301   -0.6160    0.0000 F   0  0  0  0  0  0  0  0  0  0  0  0
    4.0981    0.1160    0.0000 F   0  0  0  0  0  0  0  0  0  0  0  0
    5.0981   -1.6160    0.0000 F   0  0  0  0  0  0  0  0  0  0  0  0
    7.6962   -0.1160    0.0000 F   0  0  0  0  0  0  0  0  0  0  0  0
    6.6962    1.6160    0.0000 F   0  0  0  0  0  0  0  0  0  0  0  0
    8.9282    1.7500    0.0000 F   0  0  0  0  0  0  0  0  0  0  0  0
    8.5622    0.3840    0.0000 F   0  0  0  0  0  0  0  0  0  0  0  0
    7.5622    2.1160    0.0000 F   0  0  0  0  0  0  0  0  0  0  0  0
    2.8660   -1.7500    0.0000 O   0  5  0  0  0  0  0  0  0  0  0  0
    3.2321   -0.3840    0.0000 O   0  0  0  0  0  0  0  0  0  0  0  0
    4.2321   -2.1160    0.0000 O   0  0  0  0  0  0  0  0  0  0  0  0
    5.4641   -0.2500    0.0000 C   0  0  0  0  0  0  0  0  0  0  0  0
    6.3301    0.2500    0.0000 C   0  0  0  0  0  0  0  0  0  0  0  0
    4.5981   -0.7500    0.0000 C   0  0  0  0  0  0  0  0  0  0  0  0
    7.1962    0.7500    0.0000 C   0  0  0  0  0  0  0  0  0  0  0  0
    8.0622    1.2500    0.0000 C   0  0  0  0  0  0  0  0  0  0  0  0
  1 14  1  0  0  0  0
  1 15  2  0  0  0  0
  1 16  2  0  0  0  0
  1 19  1  0  0  0  0
  3 17  1  0  0  0  0
  4 17  1  0  0  0  0
  5 18  1  0  0  0  0
  6 18  1  0  0  0  0
  7 19  1  0  0  0  0
  8 19  1  0  0  0  0
  9 20  1  0  0  0  0
 10 20  1  0  0  0  0
 11 21  1  0  0  0  0
 12 21  1  0  0  0  0
 13 21  1  0  0  0  0
 17 18  1  0  0  0  0
 17 19  1  0  0  0  0
 18 20  1  0  0  0  0
 20 21  1  0  0  0  0
M  CHG  2   2   1  14  -1
M  END
> <PUBCHEM_COMPOUND_CID>
87842193

> <PUBCHEM_COMPOUND_CANONICALIZED>
1

> <PUBCHEM_CACTVS_COMPLEXITY>
475

> <PUBCHEM_CACTVS_HBOND_ACCEPTOR>
14

> <PUBCHEM_CACTVS_HBOND_DONOR>
0

> <PUBCHEM_CACTVS_ROTATABLE_BOND>
4

> <PUBCHEM_CACTVS_SUBSKEYS>
AAADcQBgMeBAAAAAAAAAAAAAAAAAAAAAAAAAAAAAAAAAAAAAAAAACQQAAAAACAAAQBAAAAAAAAIAAAAAAHBAAAAAAAAAAAAAAAAAAAIAAAAAAAAAAAAAAAAAAAAAAAAAAAAAAAAAAAAAAAAAAAAAAAAAAA==

> <PUBCHEM_IUPAC_OPENEYE_NAME>
sodium 1,1,2,2,3,3,4,4,5,5,5-undecafluoropentane-1-sulfonate

> <PUBCHEM_IUPAC_CAS_NAME>
sodium 1,1,2,2,3,3,4,4,5,5,5-undecafluoro-1-pentanesulfonate

> <PUBCHEM_IUPAC_NAME_MARKUP>
sodium 1,1,2,2,3,3,4,4,5,5,5-undecafluoropentane-1-sulfonate

> <PUBCHEM_IUPAC_NAME>
sodium 1,1,2,2,3,3,4,4,5,5,5-undecafluoropentane-1-sulfonate

> <PUBCHEM_IUPAC_SYSTEMATIC_NAME>
sodium 1,1,2,2,3,3,4,4,5,5,5-undecakis(fluoranyl)pentane-1-sulfonate

> <PUBCHEM_IUPAC_TRADITIONAL_NAME>
sodium 1,1,2,2,3,3,4,4,5,5,5-undecafluoropentane-1-sulfonate

> <PUBCHEM_IUPAC_INCHI>
InChI=1S/C5HF11O3S.Na/c6-1(7,2(8,9)4(12,13)14)3(10,11)5(15,16)20(17,18)19;/h(H,17,18,19);/q;+1/p-1

> <PUBCHEM_IUPAC_INCHIKEY>
ILMCRVHLQCCOBM-UHFFFAOYSA-M

> <PUBCHEM_EXACT_MASS>
371.9290191

> <PUBCHEM_MOLECULAR_FORMULA>
C5F11NaO3S

> <PUBCHEM_MOLECULAR_WEIGHT>
372.09

> <PUBCHEM_SMILES>
C(C(C(F)(F)F)(F)F)(C(C(F)(F)S(=O)(=O)[O-])(F)F)(F)F.[Na+]

> <PUBCHEM_CONNECTIVITY_SMILES>
C(C(C(F)(F)F)(F)F)(C(C(F)(F)S(=O)(=O)[O-])(F)F)(F)F.[Na+]

> <PUBCHEM_CACTVS_TPSA>
65.6

> <PUBCHEM_MONOISOTOPIC_WEIGHT>
371.9290191

> <PUBCHEM_TOTAL_CHARGE>
0

> <PUBCHEM_HEAVY_ATOM_COUNT>
21

> <PUBCHEM_ATOM_DEF_STEREO_COUNT>
0

> <PUBCHEM_ATOM_UDEF_STEREO_COUNT>
0

> <PUBCHEM_BOND_DEF_STEREO_COUNT>
0

> <PUBCHEM_BOND_UDEF_STEREO_COUNT>
0

> <PUBCHEM_ISOTOPIC_ATOM_COUNT>
0

> <PUBCHEM_COMPONENT_COUNT>
2

> <PUBCHEM_CACTVS_TAUTO_COUNT>
-1

> <PUBCHEM_NONSTANDARDBOND>
2  14  7

> <PUBCHEM_COORDINATE_TYPE>
1
5
255

$$$$
