88314418
  -OEChem-05122609412D

 41 42  0     1  0  0  0  0  0999 V2000
    3.7320   -4.7784    0.0000 Br  0  0  0  0  0  0  0  0  0  0  0  0
    5.3234    4.2464    0.0000 Br  0  0  0  0  0  0  0  0  0  0  0  0
    2.8660   -1.2784    0.0000 Br  0  0  0  0  0  0  0  0  0  0  0  0
    3.3125    1.2536    0.0000 Br  0  0  0  0  0  0  0  0  0  0  0  0
    4.5981   -4.2784    0.0000 Br  0  0  0  0  0  0  0  0  0  0  0  0
    5.9662    3.4803    0.0000 Br  0  0  0  0  0  0  0  0  0  0  0  0
    2.0000   -5.7784    0.0000 Br  0  0  0  0  0  0  0  0  0  0  0  0
    4.0378    5.7784    0.0000 Br  0  0  0  0  0  0  0  0  0  0  0  0
    6.3301   -1.2784    0.0000 Br  0  0  0  0  0  0  0  0  0  0  0  0
    6.5677    0.0688    0.0000 Br  0  0  0  0  0  0  0  0  0  0  0  0
    4.5981   -0.2785    0.0000 O   0  0  0  0  0  0  0  0  0  0  0  0
    2.8660   -3.2784    0.0000 C   0  0  0  0  0  0  0  0  0  0  0  0
    3.9965    3.1330    0.0000 C   0  0  0  0  0  0  0  0  0  0  0  0
    3.7320   -2.7784    0.0000 C   0  0  0  0  0  0  0  0  0  0  0  0
    4.6393    2.3670    0.0000 C   0  0  0  0  0  0  0  0  0  0  0  0
    2.8660   -4.2784    0.0000 C   0  0  3  0  0  0  0  0  0  0  0  0
    4.3386    4.0727    0.0000 C   0  0  3  0  0  0  0  0  0  0  0  0
    3.7320   -1.7784    0.0000 C   0  0  0  0  0  0  0  0  0  0  0  0
    4.2973    1.4273    0.0000 C   0  0  0  0  0  0  0  0  0  0  0  0
    4.5981   -1.2784    0.0000 C   0  0  0  0  0  0  0  0  0  0  0  0
    4.9401    0.6612    0.0000 C   0  0  0  0  0  0  0  0  0  0  0  0
    4.5981   -3.2784    0.0000 C   0  0  0  0  0  0  0  0  0  0  0  0
    5.6241    2.5406    0.0000 C   0  0  0  0  0  0  0  0  0  0  0  0
    2.0000   -4.7784    0.0000 C   0  0  0  0  0  0  0  0  0  0  0  0
    3.6958    4.8388    0.0000 C   0  0  0  0  0  0  0  0  0  0  0  0
    5.4641   -1.7784    0.0000 C   0  0  0  0  0  0  0  0  0  0  0  0
    5.9249    0.8349    0.0000 C   0  0  0  0  0  0  0  0  0  0  0  0
    5.4641   -2.7784    0.0000 C   0  0  0  0  0  0  0  0  0  0  0  0
    6.2669    1.7746    0.0000 C   0  0  0  0  0  0  0  0  0  0  0  0
    2.6540   -2.6958    0.0000 H   0  0  0  0  0  0  0  0  0  0  0  0
    2.2554   -3.3861    0.0000 H   0  0  0  0  0  0  0  0  0  0  0  0
    3.4596    3.4430    0.0000 H   0  0  0  0  0  0  0  0  0  0  0  0
    3.5980    2.6581    0.0000 H   0  0  0  0  0  0  0  0  0  0  0  0
    2.8660   -4.8985    0.0000 H   0  0  0  0  0  0  0  0  0  0  0  0
    4.7371    3.5978    0.0000 H   0  0  0  0  0  0  0  0  0  0  0  0
    1.7880   -4.1958    0.0000 H   0  0  0  0  0  0  0  0  0  0  0  0
    1.3894   -4.8861    0.0000 H   0  0  0  0  0  0  0  0  0  0  0  0
    3.1588    5.1488    0.0000 H   0  0  0  0  0  0  0  0  0  0  0  0
    3.2972    4.3638    0.0000 H   0  0  0  0  0  0  0  0  0  0  0  0
    6.0010   -3.0884    0.0000 H   0  0  0  0  0  0  0  0  0  0  0  0
    6.8775    1.8822    0.0000 H   0  0  0  0  0  0  0  0  0  0  0  0
  1 16  1  0  0  0  0
  2 17  1  0  0  0  0
  3 18  1  0  0  0  0
  4 19  1  0  0  0  0
  5 22  1  0  0  0  0
  6 23  1  0  0  0  0
  7 24  1  0  0  0  0
  8 25  1  0  0  0  0
  9 26  1  0  0  0  0
 10 27  1  0  0  0  0
 11 20  1  0  0  0  0
 11 21  1  0  0  0  0
 12 14  1  0  0  0  0
 12 16  1  0  0  0  0
 12 30  1  0  0  0  0
 12 31  1  0  0  0  0
 13 15  1  0  0  0  0
 13 17  1  0  0  0  0
 13 32  1  0  0  0  0
 13 33  1  0  0  0  0
 14 18  2  0  0  0  0
 14 22  1  0  0  0  0
 15 19  2  0  0  0  0
 15 23  1  0  0  0  0
 16 24  1  0  0  0  0
 16 34  1  0  0  0  0
 17 25  1  0  0  0  0
 17 35  1  0  0  0  0
 18 20  1  0  0  0  0
 19 21  1  0  0  0  0
 20 26  2  0  0  0  0
 21 27  2  0  0  0  0
 22 28  2  0  0  0  0
 23 29  2  0  0  0  0
 24 36  1  0  0  0  0
 24 37  1  0  0  0  0
 25 38  1  0  0  0  0
 25 39  1  0  0  0  0
 26 28  1  0  0  0  0
 27 29  1  0  0  0  0
 28 40  1  0  0  0  0
 29 41  1  0  0  0  0
M  END
> <PUBCHEM_COMPOUND_CID>
88314418

> <PUBCHEM_COMPOUND_CANONICALIZED>
1

> <PUBCHEM_CACTVS_COMPLEXITY>
457

> <PUBCHEM_CACTVS_HBOND_ACCEPTOR>
1

> <PUBCHEM_CACTVS_HBOND_DONOR>
0

> <PUBCHEM_CACTVS_ROTATABLE_BOND>
8

> <PUBCHEM_CACTVS_SUBSKEYS>
AAADccB4IAAAHAAAAAAAAAAAAAAAAAAAAAAwYAAAAAAAAAABQAAAGgBAAAAB7ASAmAAwBoAABACAAiBCAAACCAAgIAQAiAAECKgMJiKEMBqCOCCkwBEIqheAwLAOAhABAAAghAAEIAIAAEEIAAAAAAAAAA==

> <PUBCHEM_IUPAC_OPENEYE_NAME>
1,3,5-tribromo-2-(2,3-dibromopropyl)-4-[2,4,6-tribromo-3-(2,3-dibromopropyl)phenoxy]benzene

> <PUBCHEM_IUPAC_CAS_NAME>
1,3,5-tribromo-2-(2,3-dibromopropyl)-4-[2,4,6-tribromo-3-(2,3-dibromopropyl)phenoxy]benzene

> <PUBCHEM_IUPAC_NAME_MARKUP>
1,3,5-tribromo-2-(2,3-dibromopropyl)-4-[2,4,6-tribromo-3-(2,3-dibromopropyl)phenoxy]benzene

> <PUBCHEM_IUPAC_NAME>
1,3,5-tribromo-2-(2,3-dibromopropyl)-4-[2,4,6-tribromo-3-(2,3-dibromopropyl)phenoxy]benzene

> <PUBCHEM_IUPAC_SYSTEMATIC_NAME>
2-[2,3-bis(bromanyl)propyl]-4-[3-[2,3-bis(bromanyl)propyl]-2,4,6-tris(bromanyl)phenoxy]-1,3,5-tris(bromanyl)benzene

> <PUBCHEM_IUPAC_TRADITIONAL_NAME>
1,3,5-tribromo-2-(2,3-dibromopropyl)-4-[2,4,6-tribromo-3-(2,3-dibromopropyl)phenoxy]benzene

> <PUBCHEM_IUPAC_INCHI>
InChI=1S/C18H12Br10O/c19-5-7(21)1-9-11(23)3-13(25)17(15(9)27)29-18-14(26)4-12(24)10(16(18)28)2-8(22)6-20/h3-4,7-8H,1-2,5-6H2

> <PUBCHEM_IUPAC_INCHIKEY>
ZSXGMNZLCKKFKQ-UHFFFAOYSA-N

> <PUBCHEM_XLOGP3_AA>
11.3

> <PUBCHEM_EXACT_MASS>
1043.26194

> <PUBCHEM_MOLECULAR_FORMULA>
C18H12Br10O

> <PUBCHEM_MOLECULAR_WEIGHT>
1043.3

> <PUBCHEM_SMILES>
C1=C(C(=C(C(=C1Br)OC2=C(C=C(C(=C2Br)CC(CBr)Br)Br)Br)Br)CC(CBr)Br)Br

> <PUBCHEM_CONNECTIVITY_SMILES>
C1=C(C(=C(C(=C1Br)OC2=C(C=C(C(=C2Br)CC(CBr)Br)Br)Br)Br)CC(CBr)Br)Br

> <PUBCHEM_CACTVS_TPSA>
9.2

> <PUBCHEM_MONOISOTOPIC_WEIGHT>
1033.2722

> <PUBCHEM_TOTAL_CHARGE>
0

> <PUBCHEM_HEAVY_ATOM_COUNT>
29

> <PUBCHEM_ATOM_DEF_STEREO_COUNT>
0

> <PUBCHEM_ATOM_UDEF_STEREO_COUNT>
2

> <PUBCHEM_BOND_DEF_STEREO_COUNT>
0

> <PUBCHEM_BOND_UDEF_STEREO_COUNT>
0

> <PUBCHEM_ISOTOPIC_ATOM_COUNT>
0

> <PUBCHEM_COMPONENT_COUNT>
1

> <PUBCHEM_CACTVS_TAUTO_COUNT>
-1

> <PUBCHEM_COORDINATE_TYPE>
1
5
255

> <PUBCHEM_BONDANNOTATIONS>
16  1  3
14  18  8
14  22  8
15  19  8
15  23  8
18  20  8
19  21  8
17  2  3
20  26  8
21  27  8
22  28  8
23  29  8
26  28  8
27  29  8

$$$$
