88389
  -OEChem-05122608372D

 46 46  0     0  0  0  0  0  0999 V2000
    2.8660    1.4050    0.0000 O   0  0  0  0  0  0  0  0  0  0  0  0
    7.1962   -3.0950    0.0000 O   0  0  0  0  0  0  0  0  0  0  0  0
    8.0622   -1.5950    0.0000 O   0  0  0  0  0  0  0  0  0  0  0  0
    4.5981    2.4050    0.0000 C   0  0  0  0  0  0  0  0  0  0  0  0
    2.8660   -0.5950    0.0000 C   0  0  0  0  0  0  0  0  0  0  0  0
    4.5981    1.4050    0.0000 C   0  0  0  0  0  0  0  0  0  0  0  0
    3.7321   -0.0950    0.0000 C   0  0  0  0  0  0  0  0  0  0  0  0
    3.7321    0.9050    0.0000 C   0  0  0  0  0  0  0  0  0  0  0  0
    5.4641   -0.0950    0.0000 C   0  0  0  0  0  0  0  0  0  0  0  0
    5.4641    0.9050    0.0000 C   0  0  0  0  0  0  0  0  0  0  0  0
    4.5981   -0.5950    0.0000 C   0  0  0  0  0  0  0  0  0  0  0  0
    4.5981    3.4050    0.0000 C   0  0  0  0  0  0  0  0  0  0  0  0
    5.5981    2.4050    0.0000 C   0  0  0  0  0  0  0  0  0  0  0  0
    3.5981    2.4050    0.0000 C   0  0  0  0  0  0  0  0  0  0  0  0
    2.0000   -1.0950    0.0000 C   0  0  0  0  0  0  0  0  0  0  0  0
    3.3660   -1.4610    0.0000 C   0  0  0  0  0  0  0  0  0  0  0  0
    2.3660    0.2710    0.0000 C   0  0  0  0  0  0  0  0  0  0  0  0
    6.3301   -0.5950    0.0000 C   0  0  0  0  0  0  0  0  0  0  0  0
    6.3301   -1.5950    0.0000 C   0  0  0  0  0  0  0  0  0  0  0  0
    7.1962   -2.0950    0.0000 C   0  0  0  0  0  0  0  0  0  0  0  0
    6.0010    1.2150    0.0000 H   0  0  0  0  0  0  0  0  0  0  0  0
    4.5981   -1.2150    0.0000 H   0  0  0  0  0  0  0  0  0  0  0  0
    5.2181    3.4050    0.0000 H   0  0  0  0  0  0  0  0  0  0  0  0
    4.5981    4.0250    0.0000 H   0  0  0  0  0  0  0  0  0  0  0  0
    3.9781    3.4050    0.0000 H   0  0  0  0  0  0  0  0  0  0  0  0
    5.5981    1.7850    0.0000 H   0  0  0  0  0  0  0  0  0  0  0  0
    6.2181    2.4050    0.0000 H   0  0  0  0  0  0  0  0  0  0  0  0
    5.5981    3.0250    0.0000 H   0  0  0  0  0  0  0  0  0  0  0  0
    3.5981    3.0250    0.0000 H   0  0  0  0  0  0  0  0  0  0  0  0
    2.9781    2.4050    0.0000 H   0  0  0  0  0  0  0  0  0  0  0  0
    3.5981    1.7850    0.0000 H   0  0  0  0  0  0  0  0  0  0  0  0
    1.6900   -0.5581    0.0000 H   0  0  0  0  0  0  0  0  0  0  0  0
    1.4631   -1.4050    0.0000 H   0  0  0  0  0  0  0  0  0  0  0  0
    2.3100   -1.6319    0.0000 H   0  0  0  0  0  0  0  0  0  0  0  0
    2.8291   -1.7710    0.0000 H   0  0  0  0  0  0  0  0  0  0  0  0
    3.6760   -1.9980    0.0000 H   0  0  0  0  0  0  0  0  0  0  0  0
    3.9030   -1.1510    0.0000 H   0  0  0  0  0  0  0  0  0  0  0  0
    2.9030    0.5810    0.0000 H   0  0  0  0  0  0  0  0  0  0  0  0
    2.0560    0.8080    0.0000 H   0  0  0  0  0  0  0  0  0  0  0  0
    1.8291   -0.0390    0.0000 H   0  0  0  0  0  0  0  0  0  0  0  0
    6.9407   -0.7027    0.0000 H   0  0  0  0  0  0  0  0  0  0  0  0
    6.5422   -0.0124    0.0000 H   0  0  0  0  0  0  0  0  0  0  0  0
    5.7196   -1.4873    0.0000 H   0  0  0  0  0  0  0  0  0  0  0  0
    6.1181   -2.1776    0.0000 H   0  0  0  0  0  0  0  0  0  0  0  0
    2.8660    2.0250    0.0000 H   0  0  0  0  0  0  0  0  0  0  0  0
    7.7331   -3.4050    0.0000 H   0  0  0  0  0  0  0  0  0  0  0  0
  1  8  1  0  0  0  0
  1 45  1  0  0  0  0
  2 20  1  0  0  0  0
  2 46  1  0  0  0  0
  3 20  2  0  0  0  0
  4  6  1  0  0  0  0
  4 12  1  0  0  0  0
  4 13  1  0  0  0  0
  4 14  1  0  0  0  0
  5  7  1  0  0  0  0
  5 15  1  0  0  0  0
  5 16  1  0  0  0  0
  5 17  1  0  0  0  0
  6  8  2  0  0  0  0
  6 10  1  0  0  0  0
  7  8  1  0  0  0  0
  7 11  2  0  0  0  0
  9 10  2  0  0  0  0
  9 11  1  0  0  0  0
  9 18  1  0  0  0  0
 10 21  1  0  0  0  0
 11 22  1  0  0  0  0
 12 23  1  0  0  0  0
 12 24  1  0  0  0  0
 12 25  1  0  0  0  0
 13 26  1  0  0  0  0
 13 27  1  0  0  0  0
 13 28  1  0  0  0  0
 14 29  1  0  0  0  0
 14 30  1  0  0  0  0
 14 31  1  0  0  0  0
 15 32  1  0  0  0  0
 15 33  1  0  0  0  0
 15 34  1  0  0  0  0
 16 35  1  0  0  0  0
 16 36  1  0  0  0  0
 16 37  1  0  0  0  0
 17 38  1  0  0  0  0
 17 39  1  0  0  0  0
 17 40  1  0  0  0  0
 18 19  1  0  0  0  0
 18 41  1  0  0  0  0
 18 42  1  0  0  0  0
 19 20  1  0  0  0  0
 19 43  1  0  0  0  0
 19 44  1  0  0  0  0
M  END
> <PUBCHEM_COMPOUND_CID>
88389

> <PUBCHEM_COMPOUND_CANONICALIZED>
1

> <PUBCHEM_CACTVS_COMPLEXITY>
311

> <PUBCHEM_CACTVS_HBOND_ACCEPTOR>
3

> <PUBCHEM_CACTVS_HBOND_DONOR>
2

> <PUBCHEM_CACTVS_ROTATABLE_BOND>
5

> <PUBCHEM_CACTVS_SUBSKEYS>
AAADceB4MAAAAAAAAAAAAAAAAAAAAAAAAAAwAAAAAAAAAAABAAAAGgAACAAADgSAmAAyDoAAAgCIAiDSCAACAAAgIAAAiAEECIgIJjKCERKAcAAkwBEImAeIyOCPoAACAAAIAABAAAQAABAAAAAAAAAAAA==

> <PUBCHEM_IUPAC_OPENEYE_NAME>
3-(3,5-ditert-butyl-4-hydroxy-phenyl)propanoic acid

> <PUBCHEM_IUPAC_CAS_NAME>
3-(3,5-ditert-butyl-4-hydroxyphenyl)propanoic acid

> <PUBCHEM_IUPAC_NAME_MARKUP>
3-(3,5-di<I>tert</I>-butyl-4-hydroxyphenyl)propanoic acid

> <PUBCHEM_IUPAC_NAME>
3-(3,5-ditert-butyl-4-hydroxyphenyl)propanoic acid

> <PUBCHEM_IUPAC_SYSTEMATIC_NAME>
3-(3,5-ditert-butyl-4-oxidanyl-phenyl)propanoic acid

> <PUBCHEM_IUPAC_TRADITIONAL_NAME>
3-(3,5-ditert-butyl-4-hydroxy-phenyl)propionic acid

> <PUBCHEM_IUPAC_INCHI>
InChI=1S/C17H26O3/c1-16(2,3)12-9-11(7-8-14(18)19)10-13(15(12)20)17(4,5)6/h9-10,20H,7-8H2,1-6H3,(H,18,19)

> <PUBCHEM_IUPAC_INCHIKEY>
WPMYUUITDBHVQZ-UHFFFAOYSA-N

> <PUBCHEM_XLOGP3_AA>
4.7

> <PUBCHEM_EXACT_MASS>
278.18819469

> <PUBCHEM_MOLECULAR_FORMULA>
C17H26O3

> <PUBCHEM_MOLECULAR_WEIGHT>
278.4

> <PUBCHEM_SMILES>
CC(C)(C)C1=CC(=CC(=C1O)C(C)(C)C)CCC(=O)O

> <PUBCHEM_CONNECTIVITY_SMILES>
CC(C)(C)C1=CC(=CC(=C1O)C(C)(C)C)CCC(=O)O

> <PUBCHEM_CACTVS_TPSA>
57.5

> <PUBCHEM_MONOISOTOPIC_WEIGHT>
278.18819469

> <PUBCHEM_TOTAL_CHARGE>
0

> <PUBCHEM_HEAVY_ATOM_COUNT>
20

> <PUBCHEM_ATOM_DEF_STEREO_COUNT>
0

> <PUBCHEM_ATOM_UDEF_STEREO_COUNT>
0

> <PUBCHEM_BOND_DEF_STEREO_COUNT>
0

> <PUBCHEM_BOND_UDEF_STEREO_COUNT>
0

> <PUBCHEM_ISOTOPIC_ATOM_COUNT>
0

> <PUBCHEM_COMPONENT_COUNT>
1

> <PUBCHEM_CACTVS_TAUTO_COUNT>
-1

> <PUBCHEM_COORDINATE_TYPE>
1
5
255

> <PUBCHEM_BONDANNOTATIONS>
6  10  8
6  8  8
7  11  8
7  8  8
9  10  8
9  11  8

$$$$
