89305
  -OEChem-05122608372D

 30 33  0     1  0  0  0  0  0999 V2000
    4.6929   -0.3401    0.0000 C   0  0  3  0  0  0  0  0  0  0  0  0
    3.8839   -0.9279    0.0000 C   0  0  0  0  0  0  0  0  0  0  0  0
    5.5492   -0.8710    0.0000 C   0  0  0  0  0  0  0  0  0  0  0  0
    4.3839    0.6110    0.0000 C   0  0  0  0  0  0  0  0  0  0  0  0
    5.5500   -1.8786    0.0000 C   0  0  0  0  0  0  0  0  0  0  0  0
    3.7910   -1.9653    0.0000 C   0  0  0  0  0  0  0  0  0  0  0  0
    4.6946   -2.4110    0.0000 C   0  0  0  0  0  0  0  0  0  0  0  0
    3.0749   -0.3401    0.0000 C   0  0  0  0  0  0  0  0  0  0  0  0
    3.3839    0.6110    0.0000 C   0  0  0  0  0  0  0  0  0  0  0  0
    2.8427   -2.3963    0.0000 C   0  0  0  0  0  0  0  0  0  0  0  0
    2.1169   -0.7490    0.0000 C   0  0  0  0  0  0  0  0  0  0  0  0
    4.9185    1.5049    0.0000 C   0  0  0  0  0  0  0  0  0  0  0  0
    2.8492    1.5049    0.0000 C   0  0  0  0  0  0  0  0  0  0  0  0
    2.0000   -1.7841    0.0000 C   0  0  0  0  0  0  0  0  0  0  0  0
    4.4047    2.4110    0.0000 C   0  0  0  0  0  0  0  0  0  0  0  0
    3.3631    2.4110    0.0000 C   0  0  0  0  0  0  0  0  0  0  0  0
    5.1808    0.0425    0.0000 H   0  0  0  0  0  0  0  0  0  0  0  0
    6.1587   -0.9848    0.0000 H   0  0  0  0  0  0  0  0  0  0  0  0
    5.7732   -0.2929    0.0000 H   0  0  0  0  0  0  0  0  0  0  0  0
    5.7750   -2.4563    0.0000 H   0  0  0  0  0  0  0  0  0  0  0  0
    6.1593   -1.7639    0.0000 H   0  0  0  0  0  0  0  0  0  0  0  0
    4.3226   -2.9070    0.0000 H   0  0  0  0  0  0  0  0  0  0  0  0
    5.1136   -2.8680    0.0000 H   0  0  0  0  0  0  0  0  0  0  0  0
    2.7803   -3.0132    0.0000 H   0  0  0  0  0  0  0  0  0  0  0  0
    1.6195   -0.3788    0.0000 H   0  0  0  0  0  0  0  0  0  0  0  0
    5.5385    1.4978    0.0000 H   0  0  0  0  0  0  0  0  0  0  0  0
    2.2293    1.4978    0.0000 H   0  0  0  0  0  0  0  0  0  0  0  0
    1.4326   -2.0341    0.0000 H   0  0  0  0  0  0  0  0  0  0  0  0
    4.7168    2.9467    0.0000 H   0  0  0  0  0  0  0  0  0  0  0  0
    3.0510    2.9467    0.0000 H   0  0  0  0  0  0  0  0  0  0  0  0
  1  2  1  0  0  0  0
  1  3  1  0  0  0  0
  1  4  1  0  0  0  0
  1 17  1  0  0  0  0
  2  6  2  0  0  0  0
  2  8  1  0  0  0  0
  3  5  1  0  0  0  0
  3 18  1  0  0  0  0
  3 19  1  0  0  0  0
  4  9  1  0  0  0  0
  4 12  2  0  0  0  0
  5  7  1  0  0  0  0
  5 20  1  0  0  0  0
  5 21  1  0  0  0  0
  6  7  1  0  0  0  0
  6 10  1  0  0  0  0
  7 22  1  0  0  0  0
  7 23  1  0  0  0  0
  8  9  1  0  0  0  0
  8 11  2  0  0  0  0
  9 13  2  0  0  0  0
 10 14  2  0  0  0  0
 10 24  1  0  0  0  0
 11 14  1  0  0  0  0
 11 25  1  0  0  0  0
 12 15  1  0  0  0  0
 12 26  1  0  0  0  0
 13 16  1  0  0  0  0
 13 27  1  0  0  0  0
 14 28  1  0  0  0  0
 15 16  2  0  0  0  0
 15 29  1  0  0  0  0
 16 30  1  0  0  0  0
M  END
> <PUBCHEM_COMPOUND_CID>
89305

> <PUBCHEM_COMPOUND_CANONICALIZED>
1

> <PUBCHEM_CACTVS_COMPLEXITY>
269

> <PUBCHEM_CACTVS_HBOND_ACCEPTOR>
0

> <PUBCHEM_CACTVS_HBOND_DONOR>
0

> <PUBCHEM_CACTVS_ROTATABLE_BOND>
0

> <PUBCHEM_CACTVS_SUBSKEYS>
AAADccB4AAAAAAAAAAAAAAAAAAAAAYAAAAAwYMAAAAAAAGDBQAAAGAAAAAAADQCAGAAwAIAAAACAAiBCAAACAAAgAAAIiAAAAIgIICKAERCAIAAggAAIiAcAgMAOgAACAAAQAAAAAAQAACAAAQAACAAAAA==

> <PUBCHEM_IUPAC_OPENEYE_NAME>
1,2,3,10b-tetrahydrofluoranthene

> <PUBCHEM_IUPAC_CAS_NAME>
1,2,3,10b-tetrahydrofluoranthene

> <PUBCHEM_IUPAC_NAME_MARKUP>
1,2,3,10<I>b</I>-tetrahydrofluoranthene

> <PUBCHEM_IUPAC_NAME>
1,2,3,10b-tetrahydrofluoranthene

> <PUBCHEM_IUPAC_SYSTEMATIC_NAME>
1,2,3,10b-tetrahydrofluoranthene

> <PUBCHEM_IUPAC_TRADITIONAL_NAME>
1,2,3,10b-tetrahydrofluoranthene

> <PUBCHEM_IUPAC_INCHI>
InChI=1S/C16H14/c1-2-8-13-12(7-1)14-9-3-5-11-6-4-10-15(13)16(11)14/h1-3,5,7-9,15H,4,6,10H2

> <PUBCHEM_IUPAC_INCHIKEY>
VMBZUGDYWLFLEU-UHFFFAOYSA-N

> <PUBCHEM_XLOGP3_AA>
4.5

> <PUBCHEM_EXACT_MASS>
206.109550447

> <PUBCHEM_MOLECULAR_FORMULA>
C16H14

> <PUBCHEM_MOLECULAR_WEIGHT>
206.28

> <PUBCHEM_SMILES>
C1CC2C3=CC=CC=C3C4=CC=CC(=C24)C1

> <PUBCHEM_CONNECTIVITY_SMILES>
C1CC2C3=CC=CC=C3C4=CC=CC(=C24)C1

> <PUBCHEM_CACTVS_TPSA>
0

> <PUBCHEM_MONOISOTOPIC_WEIGHT>
206.109550447

> <PUBCHEM_TOTAL_CHARGE>
0

> <PUBCHEM_HEAVY_ATOM_COUNT>
16

> <PUBCHEM_ATOM_DEF_STEREO_COUNT>
0

> <PUBCHEM_ATOM_UDEF_STEREO_COUNT>
1

> <PUBCHEM_BOND_DEF_STEREO_COUNT>
0

> <PUBCHEM_BOND_UDEF_STEREO_COUNT>
0

> <PUBCHEM_ISOTOPIC_ATOM_COUNT>
0

> <PUBCHEM_COMPONENT_COUNT>
1

> <PUBCHEM_CACTVS_TAUTO_COUNT>
-1

> <PUBCHEM_COORDINATE_TYPE>
1
5
255

> <PUBCHEM_BONDANNOTATIONS>
1  3  3
10  14  8
11  14  8
12  15  8
13  16  8
15  16  8
2  6  8
2  8  8
4  12  8
4  9  8
6  10  8
8  11  8
9  13  8

$$$$
