9076
  -OEChem-05122609142D

 21 21  0     0  0  0  0  0  0999 V2000
    2.8660   -1.4050    0.0000 O   0  0  0  0  0  0  0  0  0  0  0  0
    2.8660    2.5950    0.0000 N   0  0  0  0  0  0  0  0  0  0  0  0
    2.8660   -0.4050    0.0000 C   0  0  0  0  0  0  0  0  0  0  0  0
    3.7321    0.0950    0.0000 C   0  0  0  0  0  0  0  0  0  0  0  0
    2.0000    0.0950    0.0000 C   0  0  0  0  0  0  0  0  0  0  0  0
    2.8660    1.5950    0.0000 C   0  0  0  0  0  0  0  0  0  0  0  0
    2.0000   -1.9050    0.0000 C   0  0  0  0  0  0  0  0  0  0  0  0
    3.7321    1.0950    0.0000 C   0  0  0  0  0  0  0  0  0  0  0  0
    2.0000    1.0950    0.0000 C   0  0  0  0  0  0  0  0  0  0  0  0
    2.0000   -2.9050    0.0000 C   0  0  0  0  0  0  0  0  0  0  0  0
    4.2690   -0.2150    0.0000 H   0  0  0  0  0  0  0  0  0  0  0  0
    1.4631   -0.2150    0.0000 H   0  0  0  0  0  0  0  0  0  0  0  0
    1.7880   -1.3224    0.0000 H   0  0  0  0  0  0  0  0  0  0  0  0
    1.3894   -2.0127    0.0000 H   0  0  0  0  0  0  0  0  0  0  0  0
    4.2690    1.4050    0.0000 H   0  0  0  0  0  0  0  0  0  0  0  0
    1.4631    1.4050    0.0000 H   0  0  0  0  0  0  0  0  0  0  0  0
    1.3800   -2.9050    0.0000 H   0  0  0  0  0  0  0  0  0  0  0  0
    2.0000   -3.5250    0.0000 H   0  0  0  0  0  0  0  0  0  0  0  0
    2.6200   -2.9050    0.0000 H   0  0  0  0  0  0  0  0  0  0  0  0
    3.4030    2.9050    0.0000 H   0  0  0  0  0  0  0  0  0  0  0  0
    2.3291    2.9050    0.0000 H   0  0  0  0  0  0  0  0  0  0  0  0
  1  3  1  0  0  0  0
  1  7  1  0  0  0  0
  2  6  1  0  0  0  0
  2 20  1  0  0  0  0
  2 21  1  0  0  0  0
  3  4  2  0  0  0  0
  3  5  1  0  0  0  0
  4  8  1  0  0  0  0
  4 11  1  0  0  0  0
  5  9  2  0  0  0  0
  5 12  1  0  0  0  0
  6  8  2  0  0  0  0
  6  9  1  0  0  0  0
  7 10  1  0  0  0  0
  7 13  1  0  0  0  0
  7 14  1  0  0  0  0
  8 15  1  0  0  0  0
  9 16  1  0  0  0  0
 10 17  1  0  0  0  0
 10 18  1  0  0  0  0
 10 19  1  0  0  0  0
M  END
> <PUBCHEM_COMPOUND_CID>
9076

> <PUBCHEM_COMPOUND_CANONICALIZED>
1

> <PUBCHEM_CACTVS_COMPLEXITY>
87.3

> <PUBCHEM_CACTVS_HBOND_ACCEPTOR>
2

> <PUBCHEM_CACTVS_HBOND_DONOR>
1

> <PUBCHEM_CACTVS_ROTATABLE_BOND>
2

> <PUBCHEM_CACTVS_SUBSKEYS>
AAADccByIAAAAAAAAAAAAAAAAAAAAAAAAAAwAAAAAAAAAAABAAAAHgAQAAAACAyhkAIyxoBABACAACRCQACCCAAgIgAIiAAGbIgMJiKEsZuCOCDk0BEI6AewQAAAAEAAAAAAAAAAgAAAAAAAAAAAAAAAAA==

> <PUBCHEM_IUPAC_OPENEYE_NAME>
4-ethoxyaniline

> <PUBCHEM_IUPAC_CAS_NAME>
4-ethoxyaniline

> <PUBCHEM_IUPAC_NAME_MARKUP>
4-ethoxyaniline

> <PUBCHEM_IUPAC_NAME>
4-ethoxyaniline

> <PUBCHEM_IUPAC_SYSTEMATIC_NAME>
4-ethoxyaniline

> <PUBCHEM_IUPAC_TRADITIONAL_NAME>
p-phenetidine

> <PUBCHEM_IUPAC_INCHI>
InChI=1S/C8H11NO/c1-2-10-8-5-3-7(9)4-6-8/h3-6H,2,9H2,1H3

> <PUBCHEM_IUPAC_INCHIKEY>
IMPPGHMHELILKG-UHFFFAOYSA-N

> <PUBCHEM_XLOGP3>
1.2

> <PUBCHEM_EXACT_MASS>
137.084063974

> <PUBCHEM_MOLECULAR_FORMULA>
C8H11NO

> <PUBCHEM_MOLECULAR_WEIGHT>
137.18

> <PUBCHEM_SMILES>
CCOC1=CC=C(C=C1)N

> <PUBCHEM_CONNECTIVITY_SMILES>
CCOC1=CC=C(C=C1)N

> <PUBCHEM_CACTVS_TPSA>
35.3

> <PUBCHEM_MONOISOTOPIC_WEIGHT>
137.084063974

> <PUBCHEM_TOTAL_CHARGE>
0

> <PUBCHEM_HEAVY_ATOM_COUNT>
10

> <PUBCHEM_ATOM_DEF_STEREO_COUNT>
0

> <PUBCHEM_ATOM_UDEF_STEREO_COUNT>
0

> <PUBCHEM_BOND_DEF_STEREO_COUNT>
0

> <PUBCHEM_BOND_UDEF_STEREO_COUNT>
0

> <PUBCHEM_ISOTOPIC_ATOM_COUNT>
0

> <PUBCHEM_COMPONENT_COUNT>
1

> <PUBCHEM_CACTVS_TAUTO_COUNT>
-1

> <PUBCHEM_COORDINATE_TYPE>
1
5
255

> <PUBCHEM_BONDANNOTATIONS>
3  4  8
3  5  8
4  8  8
5  9  8
6  8  8
6  9  8

$$$$
