91688
  -OEChem-05122610032D

 33 33  0     0  0  0  0  0  0999 V2000
    2.6723    4.1739    0.0000 Cl  0  0  0  0  0  0  0  0  0  0  0  0
    4.8479    4.1739    0.0000 Cl  0  0  0  0  0  0  0  0  0  0  0  0
    4.5691    2.4139    0.0000 S   0  0  0  0  0  0  0  0  0  0  0  0
    2.0000    2.1048    0.0000 O   0  0  0  0  0  0  0  0  0  0  0  0
    3.7601    1.8261    0.0000 N   0  0  0  0  0  0  0  0  0  0  0  0
    5.4921   -1.1739    0.0000 C   0  0  0  0  0  0  0  0  0  0  0  0
    4.6261   -0.6739    0.0000 C   0  0  0  0  0  0  0  0  0  0  0  0
    5.4921   -2.1739    0.0000 C   0  0  0  0  0  0  0  0  0  0  0  0
    4.6261    0.3261    0.0000 C   0  0  0  0  0  0  0  0  0  0  0  0
    6.3582   -2.6739    0.0000 C   0  0  0  0  0  0  0  0  0  0  0  0
    3.7601    0.8261    0.0000 C   0  0  0  0  0  0  0  0  0  0  0  0
    6.3582   -3.6739    0.0000 C   0  0  0  0  0  0  0  0  0  0  0  0
    7.2242   -4.1739    0.0000 C   0  0  0  0  0  0  0  0  0  0  0  0
    2.9511    2.4139    0.0000 C   0  0  0  0  0  0  0  0  0  0  0  0
    3.2601    3.3649    0.0000 C   0  0  0  0  0  0  0  0  0  0  0  0
    4.2601    3.3649    0.0000 C   0  0  0  0  0  0  0  0  0  0  0  0
    6.1027   -1.2816    0.0000 H   0  0  0  0  0  0  0  0  0  0  0  0
    5.7042   -0.5913    0.0000 H   0  0  0  0  0  0  0  0  0  0  0  0
    4.0155   -0.5663    0.0000 H   0  0  0  0  0  0  0  0  0  0  0  0
    4.4141   -1.2565    0.0000 H   0  0  0  0  0  0  0  0  0  0  0  0
    4.8815   -2.0663    0.0000 H   0  0  0  0  0  0  0  0  0  0  0  0
    5.2801   -2.7565    0.0000 H   0  0  0  0  0  0  0  0  0  0  0  0
    5.2367    0.2184    0.0000 H   0  0  0  0  0  0  0  0  0  0  0  0
    4.8382    0.9087    0.0000 H   0  0  0  0  0  0  0  0  0  0  0  0
    6.9687   -2.7816    0.0000 H   0  0  0  0  0  0  0  0  0  0  0  0
    6.5702   -2.0913    0.0000 H   0  0  0  0  0  0  0  0  0  0  0  0
    3.1495    0.9337    0.0000 H   0  0  0  0  0  0  0  0  0  0  0  0
    3.5480    0.2435    0.0000 H   0  0  0  0  0  0  0  0  0  0  0  0
    5.7476   -3.5663    0.0000 H   0  0  0  0  0  0  0  0  0  0  0  0
    6.1461   -4.2565    0.0000 H   0  0  0  0  0  0  0  0  0  0  0  0
    6.9142   -4.7109    0.0000 H   0  0  0  0  0  0  0  0  0  0  0  0
    7.7611   -4.4839    0.0000 H   0  0  0  0  0  0  0  0  0  0  0  0
    7.5342   -3.6370    0.0000 H   0  0  0  0  0  0  0  0  0  0  0  0
  1 15  1  0  0  0  0
  2 16  1  0  0  0  0
  3  5  1  0  0  0  0
  3 16  1  0  0  0  0
  4 14  2  0  0  0  0
  5 11  1  0  0  0  0
  5 14  1  0  0  0  0
  6  7  1  0  0  0  0
  6  8  1  0  0  0  0
  6 17  1  0  0  0  0
  6 18  1  0  0  0  0
  7  9  1  0  0  0  0
  7 19  1  0  0  0  0
  7 20  1  0  0  0  0
  8 10  1  0  0  0  0
  8 21  1  0  0  0  0
  8 22  1  0  0  0  0
  9 11  1  0  0  0  0
  9 23  1  0  0  0  0
  9 24  1  0  0  0  0
 10 12  1  0  0  0  0
 10 25  1  0  0  0  0
 10 26  1  0  0  0  0
 11 27  1  0  0  0  0
 11 28  1  0  0  0  0
 12 13  1  0  0  0  0
 12 29  1  0  0  0  0
 12 30  1  0  0  0  0
 13 31  1  0  0  0  0
 13 32  1  0  0  0  0
 13 33  1  0  0  0  0
 14 15  1  0  0  0  0
 15 16  2  0  0  0  0
M  END
> <PUBCHEM_COMPOUND_CID>
91688

> <PUBCHEM_COMPOUND_CANONICALIZED>
1

> <PUBCHEM_CACTVS_COMPLEXITY>
281

> <PUBCHEM_CACTVS_HBOND_ACCEPTOR>
2

> <PUBCHEM_CACTVS_HBOND_DONOR>
0

> <PUBCHEM_CACTVS_ROTATABLE_BOND>
7

> <PUBCHEM_CACTVS_SUBSKEYS>
AAADceByIABGAAAAAAAAAAAAAAAAAQAAAAAAAAAAAAAAAAAAAAAAHgYAQAAACALBwAQCAAIAAACIAAFQEACAAAAAAAAAAAAIAEBAAAIAgABEAAAABgCAAAEQgIAAAAAAAAAAAAAAAAAAAAAAAAAAAAAAAA==

> <PUBCHEM_IUPAC_OPENEYE_NAME>
4,5-dichloro-2-octyl-isothiazol-3-one

> <PUBCHEM_IUPAC_CAS_NAME>
4,5-dichloro-2-octyl-3-isothiazolone

> <PUBCHEM_IUPAC_NAME_MARKUP>
4,5-dichloro-2-octyl-1,2-thiazol-3-one

> <PUBCHEM_IUPAC_NAME>
4,5-dichloro-2-octyl-1,2-thiazol-3-one

> <PUBCHEM_IUPAC_SYSTEMATIC_NAME>
4,5-bis(chloranyl)-2-octyl-1,2-thiazol-3-one

> <PUBCHEM_IUPAC_TRADITIONAL_NAME>
4,5-dichloro-2-octyl-4-isothiazolin-3-one

> <PUBCHEM_IUPAC_INCHI>
InChI=1S/C11H17Cl2NOS/c1-2-3-4-5-6-7-8-14-11(15)9(12)10(13)16-14/h2-8H2,1H3

> <PUBCHEM_IUPAC_INCHIKEY>
PORQOHRXAJJKGK-UHFFFAOYSA-N

> <PUBCHEM_XLOGP3_AA>
5.1

> <PUBCHEM_EXACT_MASS>
281.0407907

> <PUBCHEM_MOLECULAR_FORMULA>
C11H17Cl2NOS

> <PUBCHEM_MOLECULAR_WEIGHT>
282.2

> <PUBCHEM_SMILES>
CCCCCCCCN1C(=O)C(=C(S1)Cl)Cl

> <PUBCHEM_CONNECTIVITY_SMILES>
CCCCCCCCN1C(=O)C(=C(S1)Cl)Cl

> <PUBCHEM_CACTVS_TPSA>
45.6

> <PUBCHEM_MONOISOTOPIC_WEIGHT>
281.0407907

> <PUBCHEM_TOTAL_CHARGE>
0

> <PUBCHEM_HEAVY_ATOM_COUNT>
16

> <PUBCHEM_ATOM_DEF_STEREO_COUNT>
0

> <PUBCHEM_ATOM_UDEF_STEREO_COUNT>
0

> <PUBCHEM_BOND_DEF_STEREO_COUNT>
0

> <PUBCHEM_BOND_UDEF_STEREO_COUNT>
0

> <PUBCHEM_ISOTOPIC_ATOM_COUNT>
0

> <PUBCHEM_COMPONENT_COUNT>
1

> <PUBCHEM_CACTVS_TAUTO_COUNT>
-1

> <PUBCHEM_COORDINATE_TYPE>
1
5
255

> <PUBCHEM_BONDANNOTATIONS>
14  15  8
15  16  8
3  16  8
3  5  8
5  14  8

$$$$
