91704770
  -OEChem-05122608472D

 42 43  0     1  0  0  0  0  0999 V2000
    5.2665    2.5948    0.0000 O   0  0  0  0  0  0  0  0  0  0  0  0
    3.4848   -0.8385    0.0000 C   0  0  3  0  0  0  0  0  0  0  0  0
    4.0835   -2.1294    0.0000 C   0  0  0  0  0  0  0  0  0  0  0  0
    4.4245   -1.1805    0.0000 C   0  0  3  0  0  0  0  0  0  0  0  0
    3.1361   -1.7845    0.0000 C   0  0  0  0  0  0  0  0  0  0  0  0
    2.9848    0.0275    0.0000 C   0  0  3  0  0  0  0  0  0  0  0  0
    5.3642   -0.8385    0.0000 C   0  0  0  0  0  0  0  0  0  0  0  0
    3.7435   -3.0698    0.0000 C   0  0  0  0  0  0  0  0  0  0  0  0
    5.0239   -2.4695    0.0000 C   0  0  0  0  0  0  0  0  0  0  0  0
    3.1585    1.0124    0.0000 C   0  0  0  0  0  0  0  0  0  0  0  0
    2.0000   -0.1461    0.0000 C   0  0  0  0  0  0  0  0  0  0  0  0
    5.8642    0.0275    0.0000 C   0  0  0  0  0  0  0  0  0  0  0  0
    3.9245    1.6551    0.0000 C   0  0  0  0  0  0  0  0  0  0  0  0
    4.9245    1.6551    0.0000 C   0  0  3  0  0  0  0  0  0  0  0  0
    5.6905    1.0124    0.0000 C   0  0  0  0  0  0  0  0  0  0  0  0
    6.5566    1.5124    0.0000 C   0  0  0  0  0  0  0  0  0  0  0  0
    3.8833   -0.3635    0.0000 H   0  0  0  0  0  0  0  0  0  0  0  0
    4.8638   -1.6180    0.0000 H   0  0  0  0  0  0  0  0  0  0  0  0
    2.5540   -1.5709    0.0000 H   0  0  0  0  0  0  0  0  0  0  0  0
    2.9232   -2.3669    0.0000 H   0  0  0  0  0  0  0  0  0  0  0  0
    2.7228   -0.5344    0.0000 H   0  0  0  0  0  0  0  0  0  0  0  0
    5.4002   -1.4574    0.0000 H   0  0  0  0  0  0  0  0  0  0  0  0
    5.9675   -0.9815    0.0000 H   0  0  0  0  0  0  0  0  0  0  0  0
    3.1604   -2.8589    0.0000 H   0  0  0  0  0  0  0  0  0  0  0  0
    3.5326   -3.6528    0.0000 H   0  0  0  0  0  0  0  0  0  0  0  0
    4.3265   -3.2806    0.0000 H   0  0  0  0  0  0  0  0  0  0  0  0
    4.8131   -3.0525    0.0000 H   0  0  0  0  0  0  0  0  0  0  0  0
    5.6070   -2.6803    0.0000 H   0  0  0  0  0  0  0  0  0  0  0  0
    5.2348   -1.8864    0.0000 H   0  0  0  0  0  0  0  0  0  0  0  0
    2.9129    1.5817    0.0000 H   0  0  0  0  0  0  0  0  0  0  0  0
    2.5427    0.9404    0.0000 H   0  0  0  0  0  0  0  0  0  0  0  0
    1.8923    0.4645    0.0000 H   0  0  0  0  0  0  0  0  0  0  0  0
    1.3894   -0.2538    0.0000 H   0  0  0  0  0  0  0  0  0  0  0  0
    2.1077   -0.7567    0.0000 H   0  0  0  0  0  0  0  0  0  0  0  0
    4.1023    2.2491    0.0000 H   0  0  0  0  0  0  0  0  0  0  0  0
    3.4065    1.9958    0.0000 H   0  0  0  0  0  0  0  0  0  0  0  0
    6.4748   -0.0801    0.0000 H   0  0  0  0  0  0  0  0  0  0  0  0
    5.5234    1.8156    0.0000 H   0  0  0  0  0  0  0  0  0  0  0  0
    6.8666    0.9754    0.0000 H   0  0  0  0  0  0  0  0  0  0  0  0
    7.0935    1.8224    0.0000 H   0  0  0  0  0  0  0  0  0  0  0  0
    6.2466    2.0493    0.0000 H   0  0  0  0  0  0  0  0  0  0  0  0
    4.8680    3.0698    0.0000 H   0  0  0  0  0  0  0  0  0  0  0  0
  1 14  1  0  0  0  0
  1 42  1  0  0  0  0
  2  4  1  0  0  0  0
  2  5  1  0  0  0  0
  2  6  1  0  0  0  0
  2 17  1  0  0  0  0
  3  4  1  0  0  0  0
  3  5  1  0  0  0  0
  3  8  1  0  0  0  0
  3  9  1  0  0  0  0
  4  7  1  0  0  0  0
  4 18  1  0  0  0  0
  5 19  1  0  0  0  0
  5 20  1  0  0  0  0
  6 10  1  0  0  0  0
  6 11  1  0  0  0  0
  6 21  1  0  0  0  0
  7 12  1  0  0  0  0
  7 22  1  0  0  0  0
  7 23  1  0  0  0  0
  8 24  1  0  0  0  0
  8 25  1  0  0  0  0
  8 26  1  0  0  0  0
  9 27  1  0  0  0  0
  9 28  1  0  0  0  0
  9 29  1  0  0  0  0
 10 13  1  0  0  0  0
 10 30  1  0  0  0  0
 10 31  1  0  0  0  0
 11 32  1  0  0  0  0
 11 33  1  0  0  0  0
 11 34  1  0  0  0  0
 12 15  2  0  0  0  0
 12 37  1  0  0  0  0
 13 14  1  0  0  0  0
 13 35  1  0  0  0  0
 13 36  1  0  0  0  0
 14 15  1  0  0  0  0
 14 38  1  0  0  0  0
 15 16  1  0  0  0  0
 16 39  1  0  0  0  0
 16 40  1  0  0  0  0
 16 41  1  0  0  0  0
M  END
> <PUBCHEM_COMPOUND_CID>
91704770

> <PUBCHEM_COMPOUND_CANONICALIZED>
1

> <PUBCHEM_CACTVS_COMPLEXITY>
290

> <PUBCHEM_CACTVS_HBOND_ACCEPTOR>
1

> <PUBCHEM_CACTVS_HBOND_DONOR>
1

> <PUBCHEM_CACTVS_ROTATABLE_BOND>
0

> <PUBCHEM_CACTVS_SUBSKEYS>
AAADceBwIAAAAAAAAAAAAAAAAABgAAAAAAAAAAAAAAAAAEAAAAAAGgAACAAADxSggAICAAAAAgCAAiBCAAAAAAAgAAAACAAAAAgAFAIAAQAAUAAEgAAIEAOAwPAPgAAAAAAAAAAAAAAAAAAAAAAAAAAAAA==

> <PUBCHEM_IUPAC_OPENEYE_NAME>
(3Z)-4,8,11,11-tetramethylbicyclo[7.2.0]undec-3-en-5-ol

> <PUBCHEM_IUPAC_CAS_NAME>
(3Z)-4,8,11,11-tetramethyl-5-bicyclo[7.2.0]undec-3-enol

> <PUBCHEM_IUPAC_NAME_MARKUP>
(3<I>Z</I>)-4,8,11,11-tetramethylbicyclo[7.2.0]undec-3-en-5-ol

> <PUBCHEM_IUPAC_NAME>
(3Z)-4,8,11,11-tetramethylbicyclo[7.2.0]undec-3-en-5-ol

> <PUBCHEM_IUPAC_SYSTEMATIC_NAME>
(3Z)-4,8,11,11-tetramethylbicyclo[7.2.0]undec-3-en-5-ol

> <PUBCHEM_IUPAC_TRADITIONAL_NAME>
(3Z)-4,8,11,11-tetramethylbicyclo[7.2.0]undec-3-en-5-ol

> <PUBCHEM_IUPAC_INCHI>
InChI=1S/C15H26O/c1-10-6-8-14(16)11(2)5-7-13-12(10)9-15(13,3)4/h5,10,12-14,16H,6-9H2,1-4H3/b11-5-

> <PUBCHEM_IUPAC_INCHIKEY>
QYGTVPFTIUUDSL-WZUFQYTHSA-N

> <PUBCHEM_XLOGP3_AA>
3.7

> <PUBCHEM_EXACT_MASS>
222.198365449

> <PUBCHEM_MOLECULAR_FORMULA>
C15H26O

> <PUBCHEM_MOLECULAR_WEIGHT>
222.37

> <PUBCHEM_SMILES>
CC1CCC(/C(=C\CC2C1CC2(C)C)/C)O

> <PUBCHEM_CONNECTIVITY_SMILES>
CC1CCC(C(=CCC2C1CC2(C)C)C)O

> <PUBCHEM_CACTVS_TPSA>
20.2

> <PUBCHEM_MONOISOTOPIC_WEIGHT>
222.198365449

> <PUBCHEM_TOTAL_CHARGE>
0

> <PUBCHEM_HEAVY_ATOM_COUNT>
16

> <PUBCHEM_ATOM_DEF_STEREO_COUNT>
0

> <PUBCHEM_ATOM_UDEF_STEREO_COUNT>
4

> <PUBCHEM_BOND_DEF_STEREO_COUNT>
1

> <PUBCHEM_BOND_UDEF_STEREO_COUNT>
0

> <PUBCHEM_ISOTOPIC_ATOM_COUNT>
0

> <PUBCHEM_COMPONENT_COUNT>
1

> <PUBCHEM_CACTVS_TAUTO_COUNT>
-1

> <PUBCHEM_COORDINATE_TYPE>
1
5
255

> <PUBCHEM_BONDANNOTATIONS>
14  1  3
2  5  3
4  7  3
6  11  3

$$$$
