91746549
  -OEChem-05122608302D

 43 44  0     1  0  0  0  0  0999 V2000
    3.7320   -0.2500    0.0000 C   0  0  1  0  0  0  0  0  0  0  0  0
    3.7320    0.7500    0.0000 C   0  0  2  0  0  0  0  0  0  0  0  0
    2.8660   -0.7500    0.0000 C   0  0  2  0  0  0  0  0  0  0  0  0
    2.8660    1.2500    0.0000 C   0  0  3  0  0  0  0  0  0  0  0  0
    4.6260   -0.7847    0.0000 C   0  0  0  0  0  0  0  0  0  0  0  0
    4.6260    1.2847    0.0000 C   0  0  0  0  0  0  0  0  0  0  0  0
    2.0000   -0.2500    0.0000 C   0  0  0  0  0  0  0  0  0  0  0  0
    2.0000    0.7500    0.0000 C   0  0  0  0  0  0  0  0  0  0  0  0
    5.5321   -0.2708    0.0000 C   0  0  3  0  0  0  0  0  0  0  0  0
    5.5321    0.7708    0.0000 C   0  0  0  0  0  0  0  0  0  0  0  0
    2.8660   -1.7500    0.0000 C   0  0  0  0  0  0  0  0  0  0  0  0
    2.8660    2.2500    0.0000 C   0  0  0  0  0  0  0  0  0  0  0  0
    6.3961   -0.7742    0.0000 C   0  0  0  0  0  0  0  0  0  0  0  0
    2.0000   -2.2500    0.0000 C   0  0  0  0  0  0  0  0  0  0  0  0
    3.7320   -2.2500    0.0000 C   0  0  0  0  0  0  0  0  0  0  0  0
    3.7255   -1.1000    0.0000 H   0  0  0  0  0  0  0  0  0  0  0  0
    4.4714    0.3307    0.0000 H   0  0  0  0  0  0  0  0  0  0  0  0
    2.3291   -1.0600    0.0000 H   0  0  0  0  0  0  0  0  0  0  0  0
    3.4030    1.5600    0.0000 H   0  0  0  0  0  0  0  0  0  0  0  0
    4.2214   -1.2544    0.0000 H   0  0  0  0  0  0  0  0  0  0  0  0
    5.0196   -1.2637    0.0000 H   0  0  0  0  0  0  0  0  0  0  0  0
    5.0196    1.7637    0.0000 H   0  0  0  0  0  0  0  0  0  0  0  0
    4.2214    1.7544    0.0000 H   0  0  0  0  0  0  0  0  0  0  0  0
    1.3894   -0.1423    0.0000 H   0  0  0  0  0  0  0  0  0  0  0  0
    1.7880   -0.8326    0.0000 H   0  0  0  0  0  0  0  0  0  0  0  0
    1.7880    1.3326    0.0000 H   0  0  0  0  0  0  0  0  0  0  0  0
    1.3894    0.6423    0.0000 H   0  0  0  0  0  0  0  0  0  0  0  0
    5.5285   -0.8908    0.0000 H   0  0  0  0  0  0  0  0  0  0  0  0
    6.1429    0.6647    0.0000 H   0  0  0  0  0  0  0  0  0  0  0  0
    5.7411    1.3545    0.0000 H   0  0  0  0  0  0  0  0  0  0  0  0
    2.8660   -2.3700    0.0000 H   0  0  0  0  0  0  0  0  0  0  0  0
    3.4860    2.2500    0.0000 H   0  0  0  0  0  0  0  0  0  0  0  0
    2.8660    2.8700    0.0000 H   0  0  0  0  0  0  0  0  0  0  0  0
    2.2460    2.2500    0.0000 H   0  0  0  0  0  0  0  0  0  0  0  0
    6.0841   -1.3099    0.0000 H   0  0  0  0  0  0  0  0  0  0  0  0
    6.9319   -1.0862    0.0000 H   0  0  0  0  0  0  0  0  0  0  0  0
    6.7082   -0.2384    0.0000 H   0  0  0  0  0  0  0  0  0  0  0  0
    1.6900   -1.7131    0.0000 H   0  0  0  0  0  0  0  0  0  0  0  0
    1.4631   -2.5600    0.0000 H   0  0  0  0  0  0  0  0  0  0  0  0
    2.3100   -2.7869    0.0000 H   0  0  0  0  0  0  0  0  0  0  0  0
    3.4220   -2.7869    0.0000 H   0  0  0  0  0  0  0  0  0  0  0  0
    4.2690   -2.5600    0.0000 H   0  0  0  0  0  0  0  0  0  0  0  0
    4.0420   -1.7131    0.0000 H   0  0  0  0  0  0  0  0  0  0  0  0
  1  2  1  0  0  0  0
  1  3  1  0  0  0  0
  1  5  1  0  0  0  0
  1 16  1  1  0  0  0
  2  4  1  0  0  0  0
  2  6  1  0  0  0  0
  2 17  1  1  0  0  0
  3  7  1  0  0  0  0
  3 11  1  1  0  0  0
  3 18  1  0  0  0  0
  4  8  1  0  0  0  0
  4 12  1  0  0  0  0
  4 19  1  0  0  0  0
  5  9  1  0  0  0  0
  5 20  1  0  0  0  0
  5 21  1  0  0  0  0
  6 10  1  0  0  0  0
  6 22  1  0  0  0  0
  6 23  1  0  0  0  0
  7  8  1  0  0  0  0
  7 24  1  0  0  0  0
  7 25  1  0  0  0  0
  8 26  1  0  0  0  0
  8 27  1  0  0  0  0
  9 10  1  0  0  0  0
  9 13  1  0  0  0  0
  9 28  1  0  0  0  0
 10 29  1  0  0  0  0
 10 30  1  0  0  0  0
 11 14  1  0  0  0  0
 11 15  1  0  0  0  0
 11 31  1  0  0  0  0
 12 32  1  0  0  0  0
 12 33  1  0  0  0  0
 12 34  1  0  0  0  0
 13 35  1  0  0  0  0
 13 36  1  0  0  0  0
 13 37  1  0  0  0  0
 14 38  1  0  0  0  0
 14 39  1  0  0  0  0
 14 40  1  0  0  0  0
 15 41  1  0  0  0  0
 15 42  1  0  0  0  0
 15 43  1  0  0  0  0
M  END
> <PUBCHEM_COMPOUND_CID>
91746549

> <PUBCHEM_COMPOUND_CANONICALIZED>
1

> <PUBCHEM_CACTVS_COMPLEXITY>
206

> <PUBCHEM_CACTVS_HBOND_ACCEPTOR>
0

> <PUBCHEM_CACTVS_HBOND_DONOR>
0

> <PUBCHEM_CACTVS_ROTATABLE_BOND>
1

> <PUBCHEM_CACTVS_SUBSKEYS>
AAADceBwAAAAAAAAAAAAAAAAAAAAAAAAAAAwYAAAAAAAAADAAAAAGAAAAAAADQCAAAACAAAAAAAAAAAAAAAAAAAAAAAAAAAAAAAAAAIAAAAAAAAAAAAAAAEAgMAOgAAAAAAAAACAAAQAACAAAAAAAAAAAA==

> <PUBCHEM_IUPAC_OPENEYE_NAME>
(4R,4aR,8aS)-4-isopropyl-1,6-dimethyl-decalin

> <PUBCHEM_IUPAC_CAS_NAME>
(4R,4aR,8aS)-1,6-dimethyl-4-propan-2-yl-1,2,3,4,4a,5,6,7,8,8a-decahydronaphthalene

> <PUBCHEM_IUPAC_NAME_MARKUP>
(4<I>R</I>,4<I>a</I><I>R</I>,8<I>a</I><I>S</I>)-1,6-dimethyl-4-propan-2-yl-1,2,3,4,4<I>a</I>,5,6,7,8,8<I>a</I>-decahydronaphthalene

> <PUBCHEM_IUPAC_NAME>
(4R,4aR,8aS)-1,6-dimethyl-4-propan-2-yl-1,2,3,4,4a,5,6,7,8,8a-decahydronaphthalene

> <PUBCHEM_IUPAC_SYSTEMATIC_NAME>
(4R,4aR,8aS)-1,6-dimethyl-4-propan-2-yl-1,2,3,4,4a,5,6,7,8,8a-decahydronaphthalene

> <PUBCHEM_IUPAC_TRADITIONAL_NAME>
(4R,4aR,8aS)-4-isopropyl-1,6-dimethyl-decalin

> <PUBCHEM_IUPAC_INCHI>
InChI=1S/C15H28/c1-10(2)13-8-6-12(4)14-7-5-11(3)9-15(13)14/h10-15H,5-9H2,1-4H3/t11?,12?,13-,14+,15-/m1/s1

> <PUBCHEM_IUPAC_INCHIKEY>
FZZNNPQZDRVKLU-IPOFZDNWSA-N

> <PUBCHEM_XLOGP3_AA>
6.2

> <PUBCHEM_EXACT_MASS>
208.219100893

> <PUBCHEM_MOLECULAR_FORMULA>
C15H28

> <PUBCHEM_MOLECULAR_WEIGHT>
208.38

> <PUBCHEM_SMILES>
CC1CC[C@@H]2[C@H](C1)[C@H](CCC2C)C(C)C

> <PUBCHEM_CONNECTIVITY_SMILES>
CC1CCC2C(CCC(C2C1)C(C)C)C

> <PUBCHEM_CACTVS_TPSA>
0

> <PUBCHEM_MONOISOTOPIC_WEIGHT>
208.219100893

> <PUBCHEM_TOTAL_CHARGE>
0

> <PUBCHEM_HEAVY_ATOM_COUNT>
15

> <PUBCHEM_ATOM_DEF_STEREO_COUNT>
3

> <PUBCHEM_ATOM_UDEF_STEREO_COUNT>
2

> <PUBCHEM_BOND_DEF_STEREO_COUNT>
0

> <PUBCHEM_BOND_UDEF_STEREO_COUNT>
0

> <PUBCHEM_ISOTOPIC_ATOM_COUNT>
0

> <PUBCHEM_COMPONENT_COUNT>
1

> <PUBCHEM_CACTVS_TAUTO_COUNT>
-1

> <PUBCHEM_COORDINATE_TYPE>
1
5
255

> <PUBCHEM_BONDANNOTATIONS>
1  16  5
2  17  5
3  11  5
4  12  3
9  13  3

$$$$
