91740682
  -OEChem-05122609512D

 55 54  0     0  0  0  0  0  0999 V2000
    7.1962   -0.3170    0.0000 Si  0  0  0  0  0  0  0  0  0  0  0  0
    8.9282   -0.3170    0.0000 Si  0  0  0  0  0  0  0  0  0  0  0  0
    5.4641   -0.3170    0.0000 Si  0  0  0  0  0  0  0  0  0  0  0  0
   10.6603   -0.3170    0.0000 Si  0  0  0  0  0  0  0  0  0  0  0  0
    8.0622    0.1830    0.0000 O   0  0  0  0  0  0  0  0  0  0  0  0
    6.3301   -0.8170    0.0000 O   0  0  0  0  0  0  0  0  0  0  0  0
    9.7942   -0.8170    0.0000 O   0  0  0  0  0  0  0  0  0  0  0  0
    4.5981    0.1830    0.0000 O   0  0  0  0  0  0  0  0  0  0  0  0
   11.5263    0.1830    0.0000 O   0  0  0  0  0  0  0  0  0  0  0  0
    6.6962    0.5490    0.0000 C   0  0  0  0  0  0  0  0  0  0  0  0
    7.6962   -1.1830    0.0000 C   0  0  0  0  0  0  0  0  0  0  0  0
    9.4282    0.5490    0.0000 C   0  0  0  0  0  0  0  0  0  0  0  0
    8.4282   -1.1830    0.0000 C   0  0  0  0  0  0  0  0  0  0  0  0
    3.7320   -0.3170    0.0000 C   0  0  0  0  0  0  0  0  0  0  0  0
    4.9641   -1.1830    0.0000 C   0  0  0  0  0  0  0  0  0  0  0  0
    5.9641    0.5490    0.0000 C   0  0  0  0  0  0  0  0  0  0  0  0
    2.8660    0.1830    0.0000 C   0  0  0  0  0  0  0  0  0  0  0  0
   11.1603   -1.1830    0.0000 C   0  0  0  0  0  0  0  0  0  0  0  0
   10.1603    0.5490    0.0000 C   0  0  0  0  0  0  0  0  0  0  0  0
    2.0000   -0.3170    0.0000 C   0  0  0  0  0  0  0  0  0  0  0  0
    2.8660    1.1830    0.0000 C   0  0  0  0  0  0  0  0  0  0  0  0
    7.2331    0.8590    0.0000 H   0  0  0  0  0  0  0  0  0  0  0  0
    6.3862    1.0860    0.0000 H   0  0  0  0  0  0  0  0  0  0  0  0
    6.1592    0.2390    0.0000 H   0  0  0  0  0  0  0  0  0  0  0  0
    7.1592   -1.4930    0.0000 H   0  0  0  0  0  0  0  0  0  0  0  0
    8.0062   -1.7200    0.0000 H   0  0  0  0  0  0  0  0  0  0  0  0
    8.2331   -0.8730    0.0000 H   0  0  0  0  0  0  0  0  0  0  0  0
    9.9651    0.2390    0.0000 H   0  0  0  0  0  0  0  0  0  0  0  0
    9.7382    1.0860    0.0000 H   0  0  0  0  0  0  0  0  0  0  0  0
    8.8913    0.8590    0.0000 H   0  0  0  0  0  0  0  0  0  0  0  0
    7.8913   -0.8730    0.0000 H   0  0  0  0  0  0  0  0  0  0  0  0
    8.1182   -1.7200    0.0000 H   0  0  0  0  0  0  0  0  0  0  0  0
    8.9651   -1.4930    0.0000 H   0  0  0  0  0  0  0  0  0  0  0  0
    3.3335   -0.7919    0.0000 H   0  0  0  0  0  0  0  0  0  0  0  0
    4.1306   -0.7919    0.0000 H   0  0  0  0  0  0  0  0  0  0  0  0
    4.4272   -0.8730    0.0000 H   0  0  0  0  0  0  0  0  0  0  0  0
    4.6541   -1.7200    0.0000 H   0  0  0  0  0  0  0  0  0  0  0  0
    5.5010   -1.4930    0.0000 H   0  0  0  0  0  0  0  0  0  0  0  0
    6.5010    0.2390    0.0000 H   0  0  0  0  0  0  0  0  0  0  0  0
    6.2741    1.0860    0.0000 H   0  0  0  0  0  0  0  0  0  0  0  0
    5.4272    0.8590    0.0000 H   0  0  0  0  0  0  0  0  0  0  0  0
    2.8660   -0.4370    0.0000 H   0  0  0  0  0  0  0  0  0  0  0  0
   10.6233   -1.4930    0.0000 H   0  0  0  0  0  0  0  0  0  0  0  0
   11.4703   -1.7200    0.0000 H   0  0  0  0  0  0  0  0  0  0  0  0
   11.6972   -0.8730    0.0000 H   0  0  0  0  0  0  0  0  0  0  0  0
   10.6972    0.8590    0.0000 H   0  0  0  0  0  0  0  0  0  0  0  0
    9.8503    1.0860    0.0000 H   0  0  0  0  0  0  0  0  0  0  0  0
    9.6233    0.2390    0.0000 H   0  0  0  0  0  0  0  0  0  0  0  0
    1.6900    0.2199    0.0000 H   0  0  0  0  0  0  0  0  0  0  0  0
    1.4631   -0.6270    0.0000 H   0  0  0  0  0  0  0  0  0  0  0  0
    2.3100   -0.8539    0.0000 H   0  0  0  0  0  0  0  0  0  0  0  0
    3.4860    1.1830    0.0000 H   0  0  0  0  0  0  0  0  0  0  0  0
    2.8660    1.8030    0.0000 H   0  0  0  0  0  0  0  0  0  0  0  0
    2.2460    1.1830    0.0000 H   0  0  0  0  0  0  0  0  0  0  0  0
   12.0632   -0.1270    0.0000 H   0  0  0  0  0  0  0  0  0  0  0  0
  1  5  1  0  0  0  0
  1  6  1  0  0  0  0
  1 10  1  0  0  0  0
  1 11  1  0  0  0  0
  2  5  1  0  0  0  0
  2  7  1  0  0  0  0
  2 12  1  0  0  0  0
  2 13  1  0  0  0  0
  3  6  1  0  0  0  0
  3  8  1  0  0  0  0
  3 15  1  0  0  0  0
  3 16  1  0  0  0  0
  4  7  1  0  0  0  0
  4  9  1  0  0  0  0
  4 18  1  0  0  0  0
  4 19  1  0  0  0  0
  8 14  1  0  0  0  0
  9 55  1  0  0  0  0
 10 22  1  0  0  0  0
 10 23  1  0  0  0  0
 10 24  1  0  0  0  0
 11 25  1  0  0  0  0
 11 26  1  0  0  0  0
 11 27  1  0  0  0  0
 12 28  1  0  0  0  0
 12 29  1  0  0  0  0
 12 30  1  0  0  0  0
 13 31  1  0  0  0  0
 13 32  1  0  0  0  0
 13 33  1  0  0  0  0
 14 17  1  0  0  0  0
 14 34  1  0  0  0  0
 14 35  1  0  0  0  0
 15 36  1  0  0  0  0
 15 37  1  0  0  0  0
 15 38  1  0  0  0  0
 16 39  1  0  0  0  0
 16 40  1  0  0  0  0
 16 41  1  0  0  0  0
 17 20  1  0  0  0  0
 17 21  1  0  0  0  0
 17 42  1  0  0  0  0
 18 43  1  0  0  0  0
 18 44  1  0  0  0  0
 18 45  1  0  0  0  0
 19 46  1  0  0  0  0
 19 47  1  0  0  0  0
 19 48  1  0  0  0  0
 20 49  1  0  0  0  0
 20 50  1  0  0  0  0
 20 51  1  0  0  0  0
 21 52  1  0  0  0  0
 21 53  1  0  0  0  0
 21 54  1  0  0  0  0
M  END
> <PUBCHEM_COMPOUND_CID>
91740682

> <PUBCHEM_COMPOUND_CANONICALIZED>
1

> <PUBCHEM_CACTVS_COMPLEXITY>
332

> <PUBCHEM_CACTVS_HBOND_ACCEPTOR>
5

> <PUBCHEM_CACTVS_HBOND_DONOR>
1

> <PUBCHEM_CACTVS_ROTATABLE_BOND>
9

> <PUBCHEM_CACTVS_SUBSKEYS>
AAADcfBwOAwAAAAAAAAAAAAAAAAAAAAAAAAAAAAAAAAAAAAAAAAAGhAACEAADQCggAJCAAAAAAEAAAAAAAAAAAAAAAAAAAAAAAAAAAAAAAAAAAAAAAAAAAAAAAAAAAAAAAAAAAAAAAAAAAAAAAAAAAAAAA==

> <PUBCHEM_IUPAC_OPENEYE_NAME>
hydroxy-[[[isobutoxy(dimethyl)silyl]oxy-dimethyl-silyl]oxy-dimethyl-silyl]oxy-dimethyl-silane

> <PUBCHEM_IUPAC_CAS_NAME>
[dimethyl(2-methylpropoxy)silyl]oxy-[[hydroxy(dimethyl)silyl]oxy-dimethylsilyl]oxy-dimethylsilane

> <PUBCHEM_IUPAC_NAME_MARKUP>
[dimethyl(2-methylpropoxy)silyl]oxy-[[hydroxy(dimethyl)silyl]oxy-dimethylsilyl]oxy-dimethylsilane

> <PUBCHEM_IUPAC_NAME>
[dimethyl(2-methylpropoxy)silyl]oxy-[[hydroxy(dimethyl)silyl]oxy-dimethylsilyl]oxy-dimethylsilane

> <PUBCHEM_IUPAC_SYSTEMATIC_NAME>
[dimethyl(2-methylpropoxy)silyl]oxy-[[dimethyl(oxidanyl)silyl]oxy-dimethyl-silyl]oxy-dimethyl-silane

> <PUBCHEM_IUPAC_TRADITIONAL_NAME>
hydroxy-[[[isobutoxy(dimethyl)silyl]oxy-dimethyl-silyl]oxy-dimethyl-silyl]oxy-dimethyl-silane

> <PUBCHEM_IUPAC_INCHI>
InChI=1S/C12H34O5Si4/c1-12(2)11-14-19(5,6)16-21(9,10)17-20(7,8)15-18(3,4)13/h12-13H,11H2,1-10H3

> <PUBCHEM_IUPAC_INCHIKEY>
XQHJKGLZKGEFQS-UHFFFAOYSA-N

> <PUBCHEM_EXACT_MASS>
370.14833032

> <PUBCHEM_MOLECULAR_FORMULA>
C12H34O5Si4

> <PUBCHEM_MOLECULAR_WEIGHT>
370.74

> <PUBCHEM_SMILES>
CC(C)CO[Si](C)(C)O[Si](C)(C)O[Si](C)(C)O[Si](C)(C)O

> <PUBCHEM_CONNECTIVITY_SMILES>
CC(C)CO[Si](C)(C)O[Si](C)(C)O[Si](C)(C)O[Si](C)(C)O

> <PUBCHEM_CACTVS_TPSA>
57.2

> <PUBCHEM_MONOISOTOPIC_WEIGHT>
370.14833032

> <PUBCHEM_TOTAL_CHARGE>
0

> <PUBCHEM_HEAVY_ATOM_COUNT>
21

> <PUBCHEM_ATOM_DEF_STEREO_COUNT>
0

> <PUBCHEM_ATOM_UDEF_STEREO_COUNT>
0

> <PUBCHEM_BOND_DEF_STEREO_COUNT>
0

> <PUBCHEM_BOND_UDEF_STEREO_COUNT>
0

> <PUBCHEM_ISOTOPIC_ATOM_COUNT>
0

> <PUBCHEM_COMPONENT_COUNT>
1

> <PUBCHEM_CACTVS_TAUTO_COUNT>
-1

> <PUBCHEM_COORDINATE_TYPE>
1
5
255

$$$$
