91743234
  -OEChem-05122608462D

 44 46  0     0  0  0  0  0  0999 V2000
    6.2462   -2.3794    0.0000 O   0  0  0  0  0  0  0  0  0  0  0  0
    3.8660   -2.1206    0.0000 O   0  0  0  0  0  0  0  0  0  0  0  0
    6.4051    2.8277    0.0000 O   0  0  0  0  0  0  0  0  0  0  0  0
    3.7321    2.3794    0.0000 O   0  0  0  0  0  0  0  0  0  0  0  0
    7.9782   -2.3794    0.0000 O   0  0  0  0  0  0  0  0  0  0  0  0
    2.1589   -2.8277    0.0000 O   0  0  0  0  0  0  0  0  0  0  0  0
    8.0361    2.5033    0.0000 O   0  0  0  0  0  0  0  0  0  0  0  0
    2.0000    2.3794    0.0000 O   0  0  0  0  0  0  0  0  0  0  0  0
    7.1122   -0.8794    0.0000 C   0  0  0  0  0  0  0  0  0  0  0  0
    2.8660   -1.1206    0.0000 C   0  0  0  0  0  0  0  0  0  0  0  0
    7.1122    1.1206    0.0000 C   0  0  0  0  0  0  0  0  0  0  0  0
    2.8660    0.8794    0.0000 C   0  0  0  0  0  0  0  0  0  0  0  0
    5.2802   -2.1206    0.0000 C   0  0  0  0  0  0  0  0  0  0  0  0
    4.5731   -2.8277    0.0000 C   0  0  0  0  0  0  0  0  0  0  0  0
    5.4051    2.8277    0.0000 C   0  0  0  0  0  0  0  0  0  0  0  0
    4.6980    2.1206    0.0000 C   0  0  0  0  0  0  0  0  0  0  0  0
    7.9782   -0.3794    0.0000 C   0  0  0  0  0  0  0  0  0  0  0  0
    7.9782    0.6206    0.0000 C   0  0  0  0  0  0  0  0  0  0  0  0
    2.0000   -0.6206    0.0000 C   0  0  0  0  0  0  0  0  0  0  0  0
    2.0000    0.3794    0.0000 C   0  0  0  0  0  0  0  0  0  0  0  0
    6.2365   -0.3828    0.0000 C   0  0  0  0  0  0  0  0  0  0  0  0
    6.2365    0.6240    0.0000 C   0  0  0  0  0  0  0  0  0  0  0  0
    3.7321   -0.6206    0.0000 C   0  0  0  0  0  0  0  0  0  0  0  0
    3.7321    0.3794    0.0000 C   0  0  0  0  0  0  0  0  0  0  0  0
    7.1122   -1.8794    0.0000 C   0  0  0  0  0  0  0  0  0  0  0  0
    2.8660   -2.1206    0.0000 C   0  0  0  0  0  0  0  0  0  0  0  0
    7.1122    2.1206    0.0000 C   0  0  0  0  0  0  0  0  0  0  0  0
    2.8660    1.8794    0.0000 C   0  0  0  0  0  0  0  0  0  0  0  0
    5.5423   -1.5587    0.0000 H   0  0  0  0  0  0  0  0  0  0  0  0
    4.7724   -1.7650    0.0000 H   0  0  0  0  0  0  0  0  0  0  0  0
    4.1347   -3.2661    0.0000 H   0  0  0  0  0  0  0  0  0  0  0  0
    5.0115   -3.2661    0.0000 H   0  0  0  0  0  0  0  0  0  0  0  0
    5.5656    3.4266    0.0000 H   0  0  0  0  0  0  0  0  0  0  0  0
    4.8682    3.1377    0.0000 H   0  0  0  0  0  0  0  0  0  0  0  0
    4.4360    1.5587    0.0000 H   0  0  0  0  0  0  0  0  0  0  0  0
    5.2059    1.7650    0.0000 H   0  0  0  0  0  0  0  0  0  0  0  0
    8.5152   -0.6894    0.0000 H   0  0  0  0  0  0  0  0  0  0  0  0
    8.5152    0.9306    0.0000 H   0  0  0  0  0  0  0  0  0  0  0  0
    1.4631   -0.9306    0.0000 H   0  0  0  0  0  0  0  0  0  0  0  0
    1.4631    0.6894    0.0000 H   0  0  0  0  0  0  0  0  0  0  0  0
    5.7007   -0.6948    0.0000 H   0  0  0  0  0  0  0  0  0  0  0  0
    5.7007    0.9360    0.0000 H   0  0  0  0  0  0  0  0  0  0  0  0
    4.2690   -0.9306    0.0000 H   0  0  0  0  0  0  0  0  0  0  0  0
    4.2690    0.6894    0.0000 H   0  0  0  0  0  0  0  0  0  0  0  0
  1 13  1  0  0  0  0
  1 25  1  0  0  0  0
  2 14  1  0  0  0  0
  2 26  1  0  0  0  0
  3 15  1  0  0  0  0
  3 27  1  0  0  0  0
  4 16  1  0  0  0  0
  4 28  1  0  0  0  0
  5 25  2  0  0  0  0
  6 26  2  0  0  0  0
  7 27  2  0  0  0  0
  8 28  2  0  0  0  0
  9 17  2  0  0  0  0
  9 21  1  0  0  0  0
  9 25  1  0  0  0  0
 10 19  2  0  0  0  0
 10 23  1  0  0  0  0
 10 26  1  0  0  0  0
 11 18  2  0  0  0  0
 11 22  1  0  0  0  0
 11 27  1  0  0  0  0
 12 20  2  0  0  0  0
 12 24  1  0  0  0  0
 12 28  1  0  0  0  0
 13 14  1  0  0  0  0
 13 29  1  0  0  0  0
 13 30  1  0  0  0  0
 14 31  1  0  0  0  0
 14 32  1  0  0  0  0
 15 16  1  0  0  0  0
 15 33  1  0  0  0  0
 15 34  1  0  0  0  0
 16 35  1  0  0  0  0
 16 36  1  0  0  0  0
 17 18  1  0  0  0  0
 17 37  1  0  0  0  0
 18 38  1  0  0  0  0
 19 20  1  0  0  0  0
 19 39  1  0  0  0  0
 20 40  1  0  0  0  0
 21 22  2  0  0  0  0
 21 41  1  0  0  0  0
 22 42  1  0  0  0  0
 23 24  2  0  0  0  0
 23 43  1  0  0  0  0
 24 44  1  0  0  0  0
M  END
> <PUBCHEM_COMPOUND_CID>
91743234

> <PUBCHEM_COMPOUND_CANONICALIZED>
1

> <PUBCHEM_CACTVS_COMPLEXITY>
481

> <PUBCHEM_CACTVS_HBOND_ACCEPTOR>
8

> <PUBCHEM_CACTVS_HBOND_DONOR>
0

> <PUBCHEM_CACTVS_ROTATABLE_BOND>
0

> <PUBCHEM_CACTVS_SUBSKEYS>
AAADceB4PAAAAAAAAAAAAAAAAAAAAAAAAAAwYAAAAAAAAAABQAAAGgAAAAAADACgmAIwCIAABACIAiDSCAACAAAkAAAIiAEACMgJJjKANRiCMQAkwAEKqYeIyDCOQAAAAAAAAACAAAAAAAAAAAAAAAAAAA==

> <PUBCHEM_IUPAC_OPENEYE_NAME>
3,6,13,16-tetraoxatricyclo[16.2.2.28,11]tetracosa-1(21),8,10,18(22),19,23-hexaene-2,7,12,17-tetrone

> <PUBCHEM_IUPAC_CAS_NAME>
3,6,13,16-tetraoxatricyclo[16.2.2.28,11]tetracosa-1(21),8,10,18(22),19,23-hexaene-2,7,12,17-tetrone

> <PUBCHEM_IUPAC_NAME_MARKUP>
3,6,13,16-tetraoxatricyclo[16.2.2.2<SUP>8,11</SUP>]tetracosa-1(21),8,10,18(22),19,23-hexaene-2,7,12,17-tetrone

> <PUBCHEM_IUPAC_NAME>
3,6,13,16-tetraoxatricyclo[16.2.2.28,11]tetracosa-1(21),8,10,18(22),19,23-hexaene-2,7,12,17-tetrone

> <PUBCHEM_IUPAC_SYSTEMATIC_NAME>
3,6,13,16-tetraoxatricyclo[16.2.2.28,11]tetracosa-1(21),8,10,18(22),19,23-hexaene-2,7,12,17-tetrone

> <PUBCHEM_IUPAC_TRADITIONAL_NAME>
3,6,13,16-tetraoxatricyclo[16.2.2.28,11]tetracosa-1(21),8,10,18(22),19,23-hexaene-2,7,12,17-diquinone

> <PUBCHEM_IUPAC_INCHI>
InChI=1S/C20H16O8/c21-17-13-1-2-14(4-3-13)18(22)26-11-12-28-20(24)16-7-5-15(6-8-16)19(23)27-10-9-25-17/h1-8H,9-12H2

> <PUBCHEM_IUPAC_INCHIKEY>
NFFNGYZBZAPKKE-UHFFFAOYSA-N

> <PUBCHEM_XLOGP3_AA>
2.8

> <PUBCHEM_EXACT_MASS>
384.08451746

> <PUBCHEM_MOLECULAR_FORMULA>
C20H16O8

> <PUBCHEM_MOLECULAR_WEIGHT>
384.3

> <PUBCHEM_SMILES>
C1COC(=O)C2=CC=C(C=C2)C(=O)OCCOC(=O)C3=CC=C(C=C3)C(=O)O1

> <PUBCHEM_CONNECTIVITY_SMILES>
C1COC(=O)C2=CC=C(C=C2)C(=O)OCCOC(=O)C3=CC=C(C=C3)C(=O)O1

> <PUBCHEM_CACTVS_TPSA>
105

> <PUBCHEM_MONOISOTOPIC_WEIGHT>
384.08451746

> <PUBCHEM_TOTAL_CHARGE>
0

> <PUBCHEM_HEAVY_ATOM_COUNT>
28

> <PUBCHEM_ATOM_DEF_STEREO_COUNT>
0

> <PUBCHEM_ATOM_UDEF_STEREO_COUNT>
0

> <PUBCHEM_BOND_DEF_STEREO_COUNT>
0

> <PUBCHEM_BOND_UDEF_STEREO_COUNT>
0

> <PUBCHEM_ISOTOPIC_ATOM_COUNT>
0

> <PUBCHEM_COMPONENT_COUNT>
1

> <PUBCHEM_CACTVS_TAUTO_COUNT>
-1

> <PUBCHEM_COORDINATE_TYPE>
1
5
255

> <PUBCHEM_BONDANNOTATIONS>
10  19  8
10  23  8
11  18  8
11  22  8
12  20  8
12  24  8
17  18  8
19  20  8
21  22  8
23  24  8
9  17  8
9  21  8

$$$$
