91886584
  -OEChem-05122609562D

 76 76  0     1  0  0  0  0  0999 V2000
    5.0298   -6.6307    0.0000 O   0  0  0  0  0  0  0  0  0  0  0  0
    2.4608   -6.3216    0.0000 O   0  0  0  0  0  0  0  0  0  0  0  0
    3.1330   -8.3907    0.0000 O   0  0  0  0  0  0  0  0  0  0  0  0
    3.3548   -4.5429    0.0000 O   0  0  0  0  0  0  0  0  0  0  0  0
    5.0869   -3.5429    0.0000 O   0  0  0  0  0  0  0  0  0  0  0  0
    6.8189   -3.5429    0.0000 O   0  0  0  0  0  0  0  0  0  0  0  0
    4.2208   -6.0429    0.0000 C   0  0  1  0  0  0  0  0  0  0  0  0
    3.4118   -6.6307    0.0000 C   0  0  1  0  0  0  0  0  0  0  0  0
    3.7208   -7.5817    0.0000 C   0  0  2  0  0  0  0  0  0  0  0  0
    4.2208   -5.0429    0.0000 C   0  0  1  0  0  0  0  0  0  0  0  0
    4.7208   -7.5817    0.0000 C   0  0  0  0  0  0  0  0  0  0  0  0
    5.0869   -4.5429    0.0000 C   0  0  0  0  0  0  0  0  0  0  0  0
    9.4170    3.9571    0.0000 C   0  0  0  0  0  0  0  0  0  0  0  0
   10.2830    4.4571    0.0000 C   0  0  0  0  0  0  0  0  0  0  0  0
    9.4170    2.9571    0.0000 C   0  0  0  0  0  0  0  0  0  0  0  0
   10.2830    5.4571    0.0000 C   0  0  0  0  0  0  0  0  0  0  0  0
    8.5510    2.4571    0.0000 C   0  0  0  0  0  0  0  0  0  0  0  0
   11.1490    5.9571    0.0000 C   0  0  0  0  0  0  0  0  0  0  0  0
    8.5510    1.4571    0.0000 C   0  0  0  0  0  0  0  0  0  0  0  0
    7.6849    0.9571    0.0000 C   0  0  0  0  0  0  0  0  0  0  0  0
   11.1490    6.9571    0.0000 C   0  0  0  0  0  0  0  0  0  0  0  0
    7.6849   -0.0429    0.0000 C   0  0  0  0  0  0  0  0  0  0  0  0
   12.0151    7.4571    0.0000 C   0  0  0  0  0  0  0  0  0  0  0  0
    6.8189   -0.5429    0.0000 C   0  0  0  0  0  0  0  0  0  0  0  0
   12.0151    8.4571    0.0000 C   0  0  0  0  0  0  0  0  0  0  0  0
    6.8189   -1.5429    0.0000 C   0  0  0  0  0  0  0  0  0  0  0  0
    5.9529   -2.0429    0.0000 C   0  0  0  0  0  0  0  0  0  0  0  0
    5.9529   -3.0429    0.0000 C   0  0  0  0  0  0  0  0  0  0  0  0
   12.8811    8.9571    0.0000 C   0  0  0  0  0  0  0  0  0  0  0  0
   11.1490    8.9571    0.0000 C   0  0  0  0  0  0  0  0  0  0  0  0
    4.9782   -5.6570    0.0000 H   0  0  0  0  0  0  0  0  0  0  0  0
    3.3148   -6.0183    0.0000 H   0  0  0  0  0  0  0  0  0  0  0  0
    4.0023   -8.1341    0.0000 H   0  0  0  0  0  0  0  0  0  0  0  0
    4.2208   -4.4229    0.0000 H   0  0  0  0  0  0  0  0  0  0  0  0
    4.6560   -8.1983    0.0000 H   0  0  0  0  0  0  0  0  0  0  0  0
    5.3273   -7.7106    0.0000 H   0  0  0  0  0  0  0  0  0  0  0  0
    5.2989   -5.1255    0.0000 H   0  0  0  0  0  0  0  0  0  0  0  0
    5.6974   -4.4352    0.0000 H   0  0  0  0  0  0  0  0  0  0  0  0
    9.2049    4.5397    0.0000 H   0  0  0  0  0  0  0  0  0  0  0  0
    8.8064    3.8495    0.0000 H   0  0  0  0  0  0  0  0  0  0  0  0
   10.4951    3.8745    0.0000 H   0  0  0  0  0  0  0  0  0  0  0  0
   10.8936    4.5648    0.0000 H   0  0  0  0  0  0  0  0  0  0  0  0
    9.6290    2.3745    0.0000 H   0  0  0  0  0  0  0  0  0  0  0  0
   10.0276    3.0648    0.0000 H   0  0  0  0  0  0  0  0  0  0  0  0
   10.0709    6.0397    0.0000 H   0  0  0  0  0  0  0  0  0  0  0  0
    9.6724    5.3495    0.0000 H   0  0  0  0  0  0  0  0  0  0  0  0
    8.3389    3.0397    0.0000 H   0  0  0  0  0  0  0  0  0  0  0  0
    7.9404    2.3495    0.0000 H   0  0  0  0  0  0  0  0  0  0  0  0
   11.3611    5.3745    0.0000 H   0  0  0  0  0  0  0  0  0  0  0  0
   11.7596    6.0648    0.0000 H   0  0  0  0  0  0  0  0  0  0  0  0
    8.7630    0.8745    0.0000 H   0  0  0  0  0  0  0  0  0  0  0  0
    9.1615    1.5648    0.0000 H   0  0  0  0  0  0  0  0  0  0  0  0
    7.4729    1.5397    0.0000 H   0  0  0  0  0  0  0  0  0  0  0  0
    7.0743    0.8495    0.0000 H   0  0  0  0  0  0  0  0  0  0  0  0
   10.9370    7.5397    0.0000 H   0  0  0  0  0  0  0  0  0  0  0  0
   10.5384    6.8495    0.0000 H   0  0  0  0  0  0  0  0  0  0  0  0
    7.8970   -0.6255    0.0000 H   0  0  0  0  0  0  0  0  0  0  0  0
    8.2955    0.0648    0.0000 H   0  0  0  0  0  0  0  0  0  0  0  0
   12.2271    6.8745    0.0000 H   0  0  0  0  0  0  0  0  0  0  0  0
   12.6256    7.5648    0.0000 H   0  0  0  0  0  0  0  0  0  0  0  0
    2.0000   -6.7365    0.0000 H   0  0  0  0  0  0  0  0  0  0  0  0
    6.6069    0.0397    0.0000 H   0  0  0  0  0  0  0  0  0  0  0  0
    6.2083   -0.6505    0.0000 H   0  0  0  0  0  0  0  0  0  0  0  0
   11.4781    8.1471    0.0000 H   0  0  0  0  0  0  0  0  0  0  0  0
    3.3852   -8.9571    0.0000 H   0  0  0  0  0  0  0  0  0  0  0  0
    7.0310   -2.1255    0.0000 H   0  0  0  0  0  0  0  0  0  0  0  0
    7.4295   -1.4352    0.0000 H   0  0  0  0  0  0  0  0  0  0  0  0
    3.3548   -3.9229    0.0000 H   0  0  0  0  0  0  0  0  0  0  0  0
    5.7408   -1.4603    0.0000 H   0  0  0  0  0  0  0  0  0  0  0  0
    5.3423   -2.1505    0.0000 H   0  0  0  0  0  0  0  0  0  0  0  0
   13.1911    8.4202    0.0000 H   0  0  0  0  0  0  0  0  0  0  0  0
   13.4180    9.2671    0.0000 H   0  0  0  0  0  0  0  0  0  0  0  0
   12.5711    9.4941    0.0000 H   0  0  0  0  0  0  0  0  0  0  0  0
   11.4590    9.4941    0.0000 H   0  0  0  0  0  0  0  0  0  0  0  0
   10.6121    9.2671    0.0000 H   0  0  0  0  0  0  0  0  0  0  0  0
   10.8390    8.4202    0.0000 H   0  0  0  0  0  0  0  0  0  0  0  0
  1  7  1  0  0  0  0
  1 11  1  0  0  0  0
  8  2  1  1  0  0  0
  2 61  1  0  0  0  0
  9  3  1  6  0  0  0
  3 65  1  0  0  0  0
 10  4  1  6  0  0  0
  4 68  1  0  0  0  0
  5 12  1  0  0  0  0
  5 28  1  0  0  0  0
  6 28  2  0  0  0  0
  7  8  1  0  0  0  0
  7 10  1  0  0  0  0
  7 31  1  6  0  0  0
  8  9  1  0  0  0  0
  8 32  1  0  0  0  0
  9 11  1  0  0  0  0
  9 33  1  0  0  0  0
 10 12  1  0  0  0  0
 10 34  1  0  0  0  0
 11 35  1  0  0  0  0
 11 36  1  0  0  0  0
 12 37  1  0  0  0  0
 12 38  1  0  0  0  0
 13 14  1  0  0  0  0
 13 15  1  0  0  0  0
 13 39  1  0  0  0  0
 13 40  1  0  0  0  0
 14 16  1  0  0  0  0
 14 41  1  0  0  0  0
 14 42  1  0  0  0  0
 15 17  1  0  0  0  0
 15 43  1  0  0  0  0
 15 44  1  0  0  0  0
 16 18  1  0  0  0  0
 16 45  1  0  0  0  0
 16 46  1  0  0  0  0
 17 19  1  0  0  0  0
 17 47  1  0  0  0  0
 17 48  1  0  0  0  0
 18 21  1  0  0  0  0
 18 49  1  0  0  0  0
 18 50  1  0  0  0  0
 19 20  1  0  0  0  0
 19 51  1  0  0  0  0
 19 52  1  0  0  0  0
 20 22  1  0  0  0  0
 20 53  1  0  0  0  0
 20 54  1  0  0  0  0
 21 23  1  0  0  0  0
 21 55  1  0  0  0  0
 21 56  1  0  0  0  0
 22 24  1  0  0  0  0
 22 57  1  0  0  0  0
 22 58  1  0  0  0  0
 23 25  1  0  0  0  0
 23 59  1  0  0  0  0
 23 60  1  0  0  0  0
 24 26  1  0  0  0  0
 24 62  1  0  0  0  0
 24 63  1  0  0  0  0
 25 29  1  0  0  0  0
 25 30  1  0  0  0  0
 25 64  1  0  0  0  0
 26 27  1  0  0  0  0
 26 66  1  0  0  0  0
 26 67  1  0  0  0  0
 27 28  1  0  0  0  0
 27 69  1  0  0  0  0
 27 70  1  0  0  0  0
 29 71  1  0  0  0  0
 29 72  1  0  0  0  0
 29 73  1  0  0  0  0
 30 74  1  0  0  0  0
 30 75  1  0  0  0  0
 30 76  1  0  0  0  0
M  END
> <PUBCHEM_COMPOUND_CID>
91886584

> <PUBCHEM_COMPOUND_CANONICALIZED>
1

> <PUBCHEM_CACTVS_COMPLEXITY>
428

> <PUBCHEM_CACTVS_HBOND_ACCEPTOR>
6

> <PUBCHEM_CACTVS_HBOND_DONOR>
3

> <PUBCHEM_CACTVS_ROTATABLE_BOND>
19

> <PUBCHEM_CACTVS_SUBSKEYS>
AAADcfB4OAAAAAAAAAAAAAAAAAAAASAAAAAAAAAAAAAAAAAAAAAAGgAACAAADRSggAICCAAABgAIAACQCAAAAAAAAAAAAAEAAAABEBIAAAACQAAFAAADAAHI6OyMAAAAAAAAAAAAAAAAAAAAAAAAAAAAAA==

> <PUBCHEM_IUPAC_OPENEYE_NAME>
[(2R)-2-[(2R,3R,4S)-3,4-dihydroxytetrahydrofuran-2-yl]-2-hydroxy-ethyl] 16-methylheptadecanoate

> <PUBCHEM_IUPAC_CAS_NAME>
16-methylheptadecanoic acid [(2R)-2-[(2R,3R,4S)-3,4-dihydroxy-2-oxolanyl]-2-hydroxyethyl] ester

> <PUBCHEM_IUPAC_NAME_MARKUP>
[(2<I>R</I>)-2-[(2<I>R</I>,3<I>R</I>,4<I>S</I>)-3,4-dihydroxyoxolan-2-yl]-2-hydroxyethyl] 16-methylheptadecanoate

> <PUBCHEM_IUPAC_NAME>
[(2R)-2-[(2R,3R,4S)-3,4-dihydroxyoxolan-2-yl]-2-hydroxyethyl] 16-methylheptadecanoate

> <PUBCHEM_IUPAC_SYSTEMATIC_NAME>
[(2R)-2-[(2R,3R,4S)-3,4-bis(oxidanyl)oxolan-2-yl]-2-oxidanyl-ethyl] 16-methylheptadecanoate

> <PUBCHEM_IUPAC_TRADITIONAL_NAME>
16-methylheptadecanoic acid [(2R)-2-[(2R,3R,4S)-3,4-dihydroxytetrahydrofuran-2-yl]-2-hydroxy-ethyl] ester

> <PUBCHEM_IUPAC_INCHI>
InChI=1S/C24H46O6/c1-19(2)15-13-11-9-7-5-3-4-6-8-10-12-14-16-22(27)29-18-21(26)24-23(28)20(25)17-30-24/h19-21,23-26,28H,3-18H2,1-2H3/t20-,21+,23+,24+/m0/s1

> <PUBCHEM_IUPAC_INCHIKEY>
NCHJGQKLPRTMAO-XWVZOOPGSA-N

> <PUBCHEM_XLOGP3_AA>
6.6

> <PUBCHEM_EXACT_MASS>
430.32943918

> <PUBCHEM_MOLECULAR_FORMULA>
C24H46O6

> <PUBCHEM_MOLECULAR_WEIGHT>
430.6

> <PUBCHEM_SMILES>
CC(C)CCCCCCCCCCCCCCC(=O)OC[C@H]([C@@H]1[C@@H]([C@H](CO1)O)O)O

> <PUBCHEM_CONNECTIVITY_SMILES>
CC(C)CCCCCCCCCCCCCCC(=O)OCC(C1C(C(CO1)O)O)O

> <PUBCHEM_CACTVS_TPSA>
96.2

> <PUBCHEM_MONOISOTOPIC_WEIGHT>
430.32943918

> <PUBCHEM_TOTAL_CHARGE>
0

> <PUBCHEM_HEAVY_ATOM_COUNT>
30

> <PUBCHEM_ATOM_DEF_STEREO_COUNT>
4

> <PUBCHEM_ATOM_UDEF_STEREO_COUNT>
0

> <PUBCHEM_BOND_DEF_STEREO_COUNT>
0

> <PUBCHEM_BOND_UDEF_STEREO_COUNT>
0

> <PUBCHEM_ISOTOPIC_ATOM_COUNT>
0

> <PUBCHEM_COMPONENT_COUNT>
1

> <PUBCHEM_CACTVS_TAUTO_COUNT>
-1

> <PUBCHEM_COORDINATE_TYPE>
1
5
255

> <PUBCHEM_BONDANNOTATIONS>
8  2  5
9  3  6
10  4  6
7  31  6

$$$$
