91895297
  -OEChem-08032615202D

 55 59  0     1  0  0  0  0  0999 V2000
    3.0172   -0.5033    0.0000 O   0  0  0  0  0  0  0  0  0  0  0  0
    2.8090   -1.5451    0.0000 O   0  0  0  0  0  0  0  0  0  0  0  0
    2.8565   -2.5875    0.0000 O   0  0  0  0  0  0  0  0  0  0  0  0
    4.5445   -3.5621    0.0000 O   0  0  0  0  0  0  0  0  0  0  0  0
    6.9438    0.6501    0.0000 O   0  0  0  0  0  0  0  0  0  0  0  0
    6.8974    2.5877    0.0000 O   0  0  0  0  0  0  0  0  0  0  0  0
    4.7419    0.2646    0.0000 N   0  0  3  0  0  0  0  0  0  0  0  0
    4.5445   -0.6638    0.0000 C   0  0  1  0  0  0  0  0  0  0  0  0
    5.3665   -1.1384    0.0000 C   0  0  1  0  0  0  0  0  0  0  0  0
    3.7226   -1.1384    0.0000 C   0  0  2  0  0  0  0  0  0  0  0  0
    4.3472    0.2646    0.0000 C   0  0  0  0  0  0  0  0  0  0  0  0
    6.0719   -0.5033    0.0000 C   0  0  0  0  0  0  0  0  0  0  0  0
    3.4033    0.3638    0.0000 C   0  0  1  0  0  0  0  0  0  0  0  0
    5.3665   -2.0875    0.0000 C   0  0  0  0  0  0  0  0  0  0  0  0
    5.2617    0.6228    0.0000 C   0  0  0  0  0  0  0  0  0  0  0  0
    5.6858    0.3638    0.0000 C   0  0  0  0  0  0  0  0  0  0  0  0
    3.7226   -2.0875    0.0000 C   0  0  2  0  0  0  0  0  0  0  0  0
    4.4180    1.0868    0.0000 C   0  0  0  0  0  0  0  0  0  0  0  0
    4.5445   -2.5621    0.0000 C   0  0  0  0  0  0  0  0  0  0  0  0
    3.8938    0.7945    0.0000 C   0  0  0  0  0  0  0  0  0  0  0  0
    6.0616    1.1209    0.0000 C   0  0  0  0  0  0  0  0  0  0  0  0
    4.3983    2.0358    0.0000 C   0  0  0  0  0  0  0  0  0  0  0  0
    6.0419    2.0699    0.0000 C   0  0  0  0  0  0  0  0  0  0  0  0
    2.0000   -0.9573    0.0000 C   0  0  0  0  0  0  0  0  0  0  0  0
    5.2102    2.5273    0.0000 C   0  0  0  0  0  0  0  0  0  0  0  0
    2.8565   -3.5875    0.0000 C   0  0  0  0  0  0  0  0  0  0  0  0
    7.7927    1.1787    0.0000 C   0  0  0  0  0  0  0  0  0  0  0  0
    6.8766    3.5875    0.0000 C   0  0  0  0  0  0  0  0  0  0  0  0
    4.9638    0.3294    0.0000 H   0  0  0  0  0  0  0  0  0  0  0  0
    4.3472    0.8846    0.0000 H   0  0  0  0  0  0  0  0  0  0  0  0
    6.4363   -1.0049    0.0000 H   0  0  0  0  0  0  0  0  0  0  0  0
    6.6088   -0.1933    0.0000 H   0  0  0  0  0  0  0  0  0  0  0  0
    2.7452    0.9018    0.0000 H   0  0  0  0  0  0  0  0  0  0  0  0
    5.5786   -2.6701    0.0000 H   0  0  0  0  0  0  0  0  0  0  0  0
    5.9771   -1.9799    0.0000 H   0  0  0  0  0  0  0  0  0  0  0  0
    6.2755    0.5554    0.0000 H   0  0  0  0  0  0  0  0  0  0  0  0
    5.5569    0.9702    0.0000 H   0  0  0  0  0  0  0  0  0  0  0  0
    3.7226   -2.7075    0.0000 H   0  0  0  0  0  0  0  0  0  0  0  0
    4.2224    1.3203    0.0000 H   0  0  0  0  0  0  0  0  0  0  0  0
    3.3680    1.1231    0.0000 H   0  0  0  0  0  0  0  0  0  0  0  0
    3.5653    0.2687    0.0000 H   0  0  0  0  0  0  0  0  0  0  0  0
    3.8550    2.3345    0.0000 H   0  0  0  0  0  0  0  0  0  0  0  0
    2.3644   -0.4557    0.0000 H   0  0  0  0  0  0  0  0  0  0  0  0
    1.4984   -0.5929    0.0000 H   0  0  0  0  0  0  0  0  0  0  0  0
    1.6356   -1.4589    0.0000 H   0  0  0  0  0  0  0  0  0  0  0  0
    5.1974    3.1472    0.0000 H   0  0  0  0  0  0  0  0  0  0  0  0
    2.2365   -3.5875    0.0000 H   0  0  0  0  0  0  0  0  0  0  0  0
    2.8565   -4.2075    0.0000 H   0  0  0  0  0  0  0  0  0  0  0  0
    3.4765   -3.5875    0.0000 H   0  0  0  0  0  0  0  0  0  0  0  0
    8.1204    0.6524    0.0000 H   0  0  0  0  0  0  0  0  0  0  0  0
    8.3190    1.5065    0.0000 H   0  0  0  0  0  0  0  0  0  0  0  0
    7.4649    1.7050    0.0000 H   0  0  0  0  0  0  0  0  0  0  0  0
    7.4965    3.6004    0.0000 H   0  0  0  0  0  0  0  0  0  0  0  0
    6.8637    4.2074    0.0000 H   0  0  0  0  0  0  0  0  0  0  0  0
    6.2567    3.5747    0.0000 H   0  0  0  0  0  0  0  0  0  0  0  0
  1 10  1  0  0  0  0
  1 13  1  0  0  0  0
 10  2  1  1  0  0  0
  2 24  1  0  0  0  0
 17  3  1  6  0  0  0
  3 26  1  0  0  0  0
  4 19  2  0  0  0  0
  5 21  1  0  0  0  0
  5 27  1  0  0  0  0
  6 23  1  0  0  0  0
  6 28  1  0  0  0  0
  8  7  1  1  0  0  0
  7 16  1  0  0  0  0
  7 20  1  0  0  0  0
  8  9  1  0  0  0  0
  8 10  1  0  0  0  0
  8 11  1  0  0  0  0
  9 12  1  1  0  0  0
  9 14  1  0  0  0  0
  9 15  1  0  0  0  0
 10 17  1  0  0  0  0
 11 13  1  0  0  0  0
 11 29  1  0  0  0  0
 11 30  1  0  0  0  0
 12 16  1  0  0  0  0
 12 31  1  0  0  0  0
 12 32  1  0  0  0  0
 13 18  1  0  0  0  0
 13 33  1  1  0  0  0
 14 19  1  0  0  0  0
 14 34  1  0  0  0  0
 14 35  1  0  0  0  0
 15 18  2  0  0  0  0
 15 21  1  0  0  0  0
 16 36  1  0  0  0  0
 16 37  1  0  0  0  0
 17 19  1  0  0  0  0
 17 38  1  0  0  0  0
 18 22  1  0  0  0  0
 20 39  1  0  0  0  0
 20 40  1  0  0  0  0
 20 41  1  0  0  0  0
 21 23  2  0  0  0  0
 22 25  2  0  0  0  0
 22 42  1  0  0  0  0
 23 25  1  0  0  0  0
 24 43  1  0  0  0  0
 24 44  1  0  0  0  0
 24 45  1  0  0  0  0
 25 46  1  0  0  0  0
 26 47  1  0  0  0  0
 26 48  1  0  0  0  0
 26 49  1  0  0  0  0
 27 50  1  0  0  0  0
 27 51  1  0  0  0  0
 27 52  1  0  0  0  0
 28 53  1  0  0  0  0
 28 54  1  0  0  0  0
 28 55  1  0  0  0  0
M  END
> <PUBCHEM_COMPOUND_CID>
91895297

> <PUBCHEM_COMPOUND_CANONICALIZED>
1

> <PUBCHEM_CACTVS_COMPLEXITY>
673

> <PUBCHEM_CACTVS_HBOND_ACCEPTOR>
7

> <PUBCHEM_CACTVS_HBOND_DONOR>
0

> <PUBCHEM_CACTVS_ROTATABLE_BOND>
4

> <PUBCHEM_CACTVS_SUBSKEYS>
AAADceB6OAAAAAAAAAAAAAAAAAAAAWJAAAAwYMAAAAAAAFjBAAAAHgAAAAAADpzhmAYyDoMABACIAqBSAAICCAAgIAAIiAFOiIgfJjaEsR+nMCIm4BGeqAf8/f/PoAABAAAYQADQAAaEADSgAAAAAAAAAA==

> <PUBCHEM_IUPAC_OPENEYE_NAME>
(1S,8S,10S,11R,12S)-3,4,11,12-tetramethoxy-17-methyl-18-oxa-17-azapentacyclo[8.4.3.18,11.01,10.02,7]octadeca-2(7),3,5-trien-13-one

> <PUBCHEM_IUPAC_CAS_NAME>
(1S,8S,10S,11R,12S)-3,4,11,12-tetramethoxy-17-methyl-18-oxa-17-azapentacyclo[8.4.3.18,11.01,10.02,7]octadeca-2(7),3,5-trien-13-one

> <PUBCHEM_IUPAC_NAME_MARKUP>
(1<I>S</I>,8<I>S</I>,10<I>S</I>,11<I>R</I>,12<I>S</I>)-3,4,11,12-tetramethoxy-17-methyl-18-oxa-17-azapentacyclo[8.4.3.1<SUP>8,11</SUP>.0<SUP>1,10</SUP>.0<SUP>2,7</SUP>]octadeca-2(7),3,5-trien-13-one

> <PUBCHEM_IUPAC_NAME>
(1S,8S,10S,11R,12S)-3,4,11,12-tetramethoxy-17-methyl-18-oxa-17-azapentacyclo[8.4.3.18,11.01,10.02,7]octadeca-2(7),3,5-trien-13-one

> <PUBCHEM_IUPAC_SYSTEMATIC_NAME>
(1S,8S,10S,11R,12S)-3,4,11,12-tetramethoxy-17-methyl-18-oxa-17-azapentacyclo[8.4.3.18,11.01,10.02,7]octadeca-2(7),3,5-trien-13-one

> <PUBCHEM_IUPAC_TRADITIONAL_NAME>
(1S,8S,10S,11R,12S)-3,4,11,12-tetramethoxy-17-methyl-18-oxa-17-azapentacyclo[8.4.3.18,11.01,10.02,7]octadeca-2(7),3,5-trien-13-one

> <PUBCHEM_IUPAC_INCHI>
InChI=1S/C21H27NO6/c1-22-9-8-19-10-13(23)18(26-4)21(27-5)20(19,22)11-15(28-21)12-6-7-14(24-2)17(25-3)16(12)19/h6-7,15,18H,8-11H2,1-5H3/t15-,18-,19-,20-,21-/m0/s1

> <PUBCHEM_IUPAC_INCHIKEY>
UTTZNWQGZHNUIG-JMMIECQRSA-N

> <PUBCHEM_XLOGP3_AA>
0.8

> <PUBCHEM_EXACT_MASS>
389.18383758

> <PUBCHEM_MOLECULAR_FORMULA>
C21H27NO6

> <PUBCHEM_MOLECULAR_WEIGHT>
389.4

> <PUBCHEM_SMILES>
CN1CC[C@@]23[C@]14C[C@@H](C5=C2C(=C(C=C5)OC)OC)O[C@]4([C@H](C(=O)C3)OC)OC

> <PUBCHEM_CONNECTIVITY_SMILES>
CN1CCC23C14CC(C5=C2C(=C(C=C5)OC)OC)OC4(C(C(=O)C3)OC)OC

> <PUBCHEM_CACTVS_TPSA>
66.5

> <PUBCHEM_MONOISOTOPIC_WEIGHT>
389.18383758

> <PUBCHEM_TOTAL_CHARGE>
0

> <PUBCHEM_HEAVY_ATOM_COUNT>
28

> <PUBCHEM_ATOM_DEF_STEREO_COUNT>
5

> <PUBCHEM_ATOM_UDEF_STEREO_COUNT>
0

> <PUBCHEM_BOND_DEF_STEREO_COUNT>
0

> <PUBCHEM_BOND_UDEF_STEREO_COUNT>
0

> <PUBCHEM_ISOTOPIC_ATOM_COUNT>
0

> <PUBCHEM_COMPONENT_COUNT>
1

> <PUBCHEM_CACTVS_TAUTO_COUNT>
-1

> <PUBCHEM_COORDINATE_TYPE>
1
5
255

> <PUBCHEM_BONDANNOTATIONS>
13  33  5
15  18  8
15  21  8
18  22  8
10  2  5
21  23  8
22  25  8
23  25  8
17  3  6
8  7  5
9  12  5

$$$$
