92053
  -OEChem-05122610002D

 44 45  0     0  0  0  0  0  0999 V2000
    4.5981   -3.3450    0.0000 O   0  0  0  0  0  0  0  0  0  0  0  0
    4.5981    0.6550    0.0000 C   0  0  0  0  0  0  0  0  0  0  0  0
    2.8660   -2.3450    0.0000 C   0  0  0  0  0  0  0  0  0  0  0  0
    4.5981   -0.3450    0.0000 C   0  0  0  0  0  0  0  0  0  0  0  0
    3.7321   -1.8450    0.0000 C   0  0  0  0  0  0  0  0  0  0  0  0
    3.7321   -0.8450    0.0000 C   0  0  0  0  0  0  0  0  0  0  0  0
    4.5981    1.6550    0.0000 C   0  0  0  0  0  0  0  0  0  0  0  0
    5.5981    0.6550    0.0000 C   0  0  0  0  0  0  0  0  0  0  0  0
    3.5981    0.6550    0.0000 C   0  0  0  0  0  0  0  0  0  0  0  0
    2.0000   -2.8450    0.0000 C   0  0  0  0  0  0  0  0  0  0  0  0
    2.3660   -1.4790    0.0000 C   0  0  0  0  0  0  0  0  0  0  0  0
    3.3660   -3.2110    0.0000 C   0  0  0  0  0  0  0  0  0  0  0  0
    4.5981   -2.3450    0.0000 C   0  0  0  0  0  0  0  0  0  0  0  0
    5.4641   -0.8450    0.0000 C   0  0  0  0  0  0  0  0  0  0  0  0
    5.4641   -1.8450    0.0000 C   0  0  0  0  0  0  0  0  0  0  0  0
    3.7321    2.1550    0.0000 C   0  0  0  0  0  0  0  0  0  0  0  0
    5.4641    2.1550    0.0000 C   0  0  0  0  0  0  0  0  0  0  0  0
    3.7321    3.1550    0.0000 C   0  0  0  0  0  0  0  0  0  0  0  0
    5.4641    3.1550    0.0000 C   0  0  0  0  0  0  0  0  0  0  0  0
    4.5981    3.6550    0.0000 C   0  0  0  0  0  0  0  0  0  0  0  0
    3.1951   -0.5350    0.0000 H   0  0  0  0  0  0  0  0  0  0  0  0
    5.5981    0.0350    0.0000 H   0  0  0  0  0  0  0  0  0  0  0  0
    6.2181    0.6550    0.0000 H   0  0  0  0  0  0  0  0  0  0  0  0
    5.5981    1.2750    0.0000 H   0  0  0  0  0  0  0  0  0  0  0  0
    3.5981    1.2750    0.0000 H   0  0  0  0  0  0  0  0  0  0  0  0
    2.9781    0.6550    0.0000 H   0  0  0  0  0  0  0  0  0  0  0  0
    3.5981    0.0350    0.0000 H   0  0  0  0  0  0  0  0  0  0  0  0
    1.6900   -2.3081    0.0000 H   0  0  0  0  0  0  0  0  0  0  0  0
    1.4631   -3.1550    0.0000 H   0  0  0  0  0  0  0  0  0  0  0  0
    2.3100   -3.3819    0.0000 H   0  0  0  0  0  0  0  0  0  0  0  0
    2.9030   -1.1690    0.0000 H   0  0  0  0  0  0  0  0  0  0  0  0
    2.0560   -0.9420    0.0000 H   0  0  0  0  0  0  0  0  0  0  0  0
    1.8291   -1.7890    0.0000 H   0  0  0  0  0  0  0  0  0  0  0  0
    2.8291   -3.5210    0.0000 H   0  0  0  0  0  0  0  0  0  0  0  0
    3.6760   -3.7480    0.0000 H   0  0  0  0  0  0  0  0  0  0  0  0
    3.9030   -2.9010    0.0000 H   0  0  0  0  0  0  0  0  0  0  0  0
    6.0010   -0.5350    0.0000 H   0  0  0  0  0  0  0  0  0  0  0  0
    6.0010   -2.1550    0.0000 H   0  0  0  0  0  0  0  0  0  0  0  0
    3.1951    1.8450    0.0000 H   0  0  0  0  0  0  0  0  0  0  0  0
    6.0010    1.8450    0.0000 H   0  0  0  0  0  0  0  0  0  0  0  0
    3.1951    3.4650    0.0000 H   0  0  0  0  0  0  0  0  0  0  0  0
    6.0010    3.4650    0.0000 H   0  0  0  0  0  0  0  0  0  0  0  0
    5.1350   -3.6550    0.0000 H   0  0  0  0  0  0  0  0  0  0  0  0
    4.5981    4.2750    0.0000 H   0  0  0  0  0  0  0  0  0  0  0  0
  1 13  1  0  0  0  0
  1 43  1  0  0  0  0
  2  4  1  0  0  0  0
  2  7  1  0  0  0  0
  2  8  1  0  0  0  0
  2  9  1  0  0  0  0
  3  5  1  0  0  0  0
  3 10  1  0  0  0  0
  3 11  1  0  0  0  0
  3 12  1  0  0  0  0
  4  6  2  0  0  0  0
  4 14  1  0  0  0  0
  5  6  1  0  0  0  0
  5 13  2  0  0  0  0
  6 21  1  0  0  0  0
  7 16  2  0  0  0  0
  7 17  1  0  0  0  0
  8 22  1  0  0  0  0
  8 23  1  0  0  0  0
  8 24  1  0  0  0  0
  9 25  1  0  0  0  0
  9 26  1  0  0  0  0
  9 27  1  0  0  0  0
 10 28  1  0  0  0  0
 10 29  1  0  0  0  0
 10 30  1  0  0  0  0
 11 31  1  0  0  0  0
 11 32  1  0  0  0  0
 11 33  1  0  0  0  0
 12 34  1  0  0  0  0
 12 35  1  0  0  0  0
 12 36  1  0  0  0  0
 13 15  1  0  0  0  0
 14 15  2  0  0  0  0
 14 37  1  0  0  0  0
 15 38  1  0  0  0  0
 16 18  1  0  0  0  0
 16 39  1  0  0  0  0
 17 19  2  0  0  0  0
 17 40  1  0  0  0  0
 18 20  2  0  0  0  0
 18 41  1  0  0  0  0
 19 20  1  0  0  0  0
 19 42  1  0  0  0  0
 20 44  1  0  0  0  0
M  END
> <PUBCHEM_COMPOUND_CID>
92053

> <PUBCHEM_COMPOUND_CANONICALIZED>
1

> <PUBCHEM_CACTVS_COMPLEXITY>
306

> <PUBCHEM_CACTVS_HBOND_ACCEPTOR>
1

> <PUBCHEM_CACTVS_HBOND_DONOR>
1

> <PUBCHEM_CACTVS_ROTATABLE_BOND>
3

> <PUBCHEM_CACTVS_SUBSKEYS>
AAADceB4IAAAAAAAAAAAAAAAAAAAAAAAAAAwYAAAAAAAAAABQAAAGgAACAAADgSAmAAyBoAAAgCAAiBCAAACAAAgIAAIiAAGCIgIJiKCERKAcAAkwBEImAeAwPAPoAACAAAIAABAAAQAABAAAAAAAAAAAA==

> <PUBCHEM_IUPAC_OPENEYE_NAME>
2-tert-butyl-4-(1-methyl-1-phenyl-ethyl)phenol

> <PUBCHEM_IUPAC_CAS_NAME>
2-tert-butyl-4-(2-phenylpropan-2-yl)phenol

> <PUBCHEM_IUPAC_NAME_MARKUP>
2-<I>tert</I>-butyl-4-(2-phenylpropan-2-yl)phenol

> <PUBCHEM_IUPAC_NAME>
2-tert-butyl-4-(2-phenylpropan-2-yl)phenol

> <PUBCHEM_IUPAC_SYSTEMATIC_NAME>
2-tert-butyl-4-(2-phenylpropan-2-yl)phenol

> <PUBCHEM_IUPAC_TRADITIONAL_NAME>
2-tert-butyl-4-cumyl-phenol

> <PUBCHEM_IUPAC_INCHI>
InChI=1S/C19H24O/c1-18(2,3)16-13-15(11-12-17(16)20)19(4,5)14-9-7-6-8-10-14/h6-13,20H,1-5H3

> <PUBCHEM_IUPAC_INCHIKEY>
UYHCLPYFSWPVDZ-UHFFFAOYSA-N

> <PUBCHEM_XLOGP3>
6.1

> <PUBCHEM_EXACT_MASS>
268.182715385

> <PUBCHEM_MOLECULAR_FORMULA>
C19H24O

> <PUBCHEM_MOLECULAR_WEIGHT>
268.4

> <PUBCHEM_SMILES>
CC(C)(C)C1=C(C=CC(=C1)C(C)(C)C2=CC=CC=C2)O

> <PUBCHEM_CONNECTIVITY_SMILES>
CC(C)(C)C1=C(C=CC(=C1)C(C)(C)C2=CC=CC=C2)O

> <PUBCHEM_CACTVS_TPSA>
20.2

> <PUBCHEM_MONOISOTOPIC_WEIGHT>
268.182715385

> <PUBCHEM_TOTAL_CHARGE>
0

> <PUBCHEM_HEAVY_ATOM_COUNT>
20

> <PUBCHEM_ATOM_DEF_STEREO_COUNT>
0

> <PUBCHEM_ATOM_UDEF_STEREO_COUNT>
0

> <PUBCHEM_BOND_DEF_STEREO_COUNT>
0

> <PUBCHEM_BOND_UDEF_STEREO_COUNT>
0

> <PUBCHEM_ISOTOPIC_ATOM_COUNT>
0

> <PUBCHEM_COMPONENT_COUNT>
1

> <PUBCHEM_CACTVS_TAUTO_COUNT>
-1

> <PUBCHEM_COORDINATE_TYPE>
1
5
255

> <PUBCHEM_BONDANNOTATIONS>
13  15  8
14  15  8
16  18  8
17  19  8
18  20  8
19  20  8
4  14  8
4  6  8
5  13  8
5  6  8
7  16  8
7  17  8

$$$$
