92310
  -OEChem-05122609422D

 53 52  0     0  0  0  0  0  0999 V2000
    8.0622   -1.7321    0.0000 Cl  0  0  0  0  0  0  0  0  0  0  0  0
    8.0622    1.7321    0.0000 Cl  0  0  0  0  0  0  0  0  0  0  0  0
   14.1244    0.5000    0.0000 Cl  0  0  0  0  0  0  0  0  0  0  0  0
   10.6603   -2.9641    0.0000 Cl  0  0  0  0  0  0  0  0  0  0  0  0
    2.0000   -0.5000    0.0000 Cl  0  0  0  0  0  0  0  0  0  0  0  0
    5.4641    2.9641    0.0000 Cl  0  0  0  0  0  0  0  0  0  0  0  0
   10.6603    0.5000    0.0000 P   0  0  0  0  0  0  0  0  0  0  0  0
    5.4641   -0.5000    0.0000 P   0  0  0  0  0  0  0  0  0  0  0  0
    9.7942    0.0000    0.0000 O   0  0  0  0  0  0  0  0  0  0  0  0
    6.3301    0.0000    0.0000 O   0  0  0  0  0  0  0  0  0  0  0  0
   11.5263    1.0000    0.0000 O   0  0  0  0  0  0  0  0  0  0  0  0
   11.1603   -0.3660    0.0000 O   0  0  0  0  0  0  0  0  0  0  0  0
    4.5981   -1.0000    0.0000 O   0  0  0  0  0  0  0  0  0  0  0  0
    4.9641    0.3660    0.0000 O   0  0  0  0  0  0  0  0  0  0  0  0
   10.1603    1.3660    0.0000 O   0  0  0  0  0  0  0  0  0  0  0  0
    5.9641   -1.3660    0.0000 O   0  0  0  0  0  0  0  0  0  0  0  0
    8.0622    0.0000    0.0000 C   0  0  0  0  0  0  0  0  0  0  0  0
    8.9282    0.5000    0.0000 C   0  0  0  0  0  0  0  0  0  0  0  0
    7.1962   -0.5000    0.0000 C   0  0  0  0  0  0  0  0  0  0  0  0
    8.5622   -0.8660    0.0000 C   0  0  0  0  0  0  0  0  0  0  0  0
    7.5622    0.8660    0.0000 C   0  0  0  0  0  0  0  0  0  0  0  0
   12.3923    0.5000    0.0000 C   0  0  0  0  0  0  0  0  0  0  0  0
   10.6603   -1.2321    0.0000 C   0  0  0  0  0  0  0  0  0  0  0  0
    3.7321   -0.5000    0.0000 C   0  0  0  0  0  0  0  0  0  0  0  0
    5.4641    1.2321    0.0000 C   0  0  0  0  0  0  0  0  0  0  0  0
   13.2583    1.0000    0.0000 C   0  0  0  0  0  0  0  0  0  0  0  0
   11.1603   -2.0981    0.0000 C   0  0  0  0  0  0  0  0  0  0  0  0
    2.8660   -1.0000    0.0000 C   0  0  0  0  0  0  0  0  0  0  0  0
    4.9641    2.0981    0.0000 C   0  0  0  0  0  0  0  0  0  0  0  0
    9.3267    0.9749    0.0000 H   0  0  0  0  0  0  0  0  0  0  0  0
    8.5297    0.9749    0.0000 H   0  0  0  0  0  0  0  0  0  0  0  0
    6.7976   -0.9749    0.0000 H   0  0  0  0  0  0  0  0  0  0  0  0
    7.5947   -0.9749    0.0000 H   0  0  0  0  0  0  0  0  0  0  0  0
    9.0371   -1.2646    0.0000 H   0  0  0  0  0  0  0  0  0  0  0  0
    9.0371   -0.4675    0.0000 H   0  0  0  0  0  0  0  0  0  0  0  0
    7.0872    1.2646    0.0000 H   0  0  0  0  0  0  0  0  0  0  0  0
    7.0872    0.4675    0.0000 H   0  0  0  0  0  0  0  0  0  0  0  0
   11.9938    0.0251    0.0000 H   0  0  0  0  0  0  0  0  0  0  0  0
   12.7908    0.0251    0.0000 H   0  0  0  0  0  0  0  0  0  0  0  0
   10.1853   -0.8335    0.0000 H   0  0  0  0  0  0  0  0  0  0  0  0
   10.1853   -1.6306    0.0000 H   0  0  0  0  0  0  0  0  0  0  0  0
    4.1306   -0.0251    0.0000 H   0  0  0  0  0  0  0  0  0  0  0  0
    3.3335   -0.0251    0.0000 H   0  0  0  0  0  0  0  0  0  0  0  0
    5.9391    0.8335    0.0000 H   0  0  0  0  0  0  0  0  0  0  0  0
    5.9391    1.6306    0.0000 H   0  0  0  0  0  0  0  0  0  0  0  0
   13.6569    1.4750    0.0000 H   0  0  0  0  0  0  0  0  0  0  0  0
   12.8598    1.4750    0.0000 H   0  0  0  0  0  0  0  0  0  0  0  0
   11.6352   -2.4966    0.0000 H   0  0  0  0  0  0  0  0  0  0  0  0
   11.6352   -1.6996    0.0000 H   0  0  0  0  0  0  0  0  0  0  0  0
    2.4675   -1.4750    0.0000 H   0  0  0  0  0  0  0  0  0  0  0  0
    3.2646   -1.4750    0.0000 H   0  0  0  0  0  0  0  0  0  0  0  0
    4.4892    2.4966    0.0000 H   0  0  0  0  0  0  0  0  0  0  0  0
    4.4892    1.6996    0.0000 H   0  0  0  0  0  0  0  0  0  0  0  0
  1 20  1  0  0  0  0
  2 21  1  0  0  0  0
  3 26  1  0  0  0  0
  4 27  1  0  0  0  0
  5 28  1  0  0  0  0
  6 29  1  0  0  0  0
  7  9  1  0  0  0  0
  7 11  1  0  0  0  0
  7 12  1  0  0  0  0
  7 15  2  0  0  0  0
  8 10  1  0  0  0  0
  8 13  1  0  0  0  0
  8 14  1  0  0  0  0
  8 16  2  0  0  0  0
  9 18  1  0  0  0  0
 10 19  1  0  0  0  0
 11 22  1  0  0  0  0
 12 23  1  0  0  0  0
 13 24  1  0  0  0  0
 14 25  1  0  0  0  0
 17 18  1  0  0  0  0
 17 19  1  0  0  0  0
 17 20  1  0  0  0  0
 17 21  1  0  0  0  0
 18 30  1  0  0  0  0
 18 31  1  0  0  0  0
 19 32  1  0  0  0  0
 19 33  1  0  0  0  0
 20 34  1  0  0  0  0
 20 35  1  0  0  0  0
 21 36  1  0  0  0  0
 21 37  1  0  0  0  0
 22 26  1  0  0  0  0
 22 38  1  0  0  0  0
 22 39  1  0  0  0  0
 23 27  1  0  0  0  0
 23 40  1  0  0  0  0
 23 41  1  0  0  0  0
 24 28  1  0  0  0  0
 24 42  1  0  0  0  0
 24 43  1  0  0  0  0
 25 29  1  0  0  0  0
 25 44  1  0  0  0  0
 25 45  1  0  0  0  0
 26 46  1  0  0  0  0
 26 47  1  0  0  0  0
 27 48  1  0  0  0  0
 27 49  1  0  0  0  0
 28 50  1  0  0  0  0
 28 51  1  0  0  0  0
 29 52  1  0  0  0  0
 29 53  1  0  0  0  0
M  END
> <PUBCHEM_COMPOUND_CID>
92310

> <PUBCHEM_COMPOUND_CANONICALIZED>
1

> <PUBCHEM_CACTVS_COMPLEXITY>
450

> <PUBCHEM_CACTVS_HBOND_ACCEPTOR>
8

> <PUBCHEM_CACTVS_HBOND_DONOR>
0

> <PUBCHEM_CACTVS_ROTATABLE_BOND>
20

> <PUBCHEM_CACTVS_SUBSKEYS>
AAADceBwPAMHAAAAAAAAAAAAAAAAAAAAAAAAAAAAAAAAAAAAAAAAGgIAACAADgOggEIAAAAAARAAQAAAAIAAAAAAAAAAAAAAAwAAAAAAAAAAAAABAAAAAAAAAAAAAAAAAAAAAAAAAAAAAAAAAAAAAAAAAA==

> <PUBCHEM_IUPAC_OPENEYE_NAME>
[2-[bis(2-chloroethoxy)phosphoryloxymethyl]-3-chloro-2-(chloromethyl)propyl] bis(2-chloroethyl) phosphate

> <PUBCHEM_IUPAC_CAS_NAME>
phosphoric acid [2-[bis(2-chloroethoxy)phosphoryloxymethyl]-3-chloro-2-(chloromethyl)propyl] bis(2-chloroethyl) ester

> <PUBCHEM_IUPAC_NAME_MARKUP>
[2-[bis(2-chloroethoxy)phosphoryloxymethyl]-3-chloro-2-(chloromethyl)propyl] bis(2-chloroethyl) phosphate

> <PUBCHEM_IUPAC_NAME>
[2-[bis(2-chloroethoxy)phosphoryloxymethyl]-3-chloro-2-(chloromethyl)propyl] bis(2-chloroethyl) phosphate

> <PUBCHEM_IUPAC_SYSTEMATIC_NAME>
[2-[bis(2-chloroethyloxy)phosphoryloxymethyl]-3-chloranyl-2-(chloromethyl)propyl] bis(2-chloroethyl) phosphate

> <PUBCHEM_IUPAC_TRADITIONAL_NAME>
phosphoric acid [2-[bis(2-chloroethoxy)phosphoryloxymethyl]-3-chloro-2-(chloromethyl)propyl] bis(2-chloroethyl) ester

> <PUBCHEM_IUPAC_INCHI>
InChI=1S/C13H24Cl6O8P2/c14-1-5-22-28(20,23-6-2-15)26-11-13(9-18,10-19)12-27-29(21,24-7-3-16)25-8-4-17/h1-12H2

> <PUBCHEM_IUPAC_INCHIKEY>
ZGHUDSLVQAGWEY-UHFFFAOYSA-N

> <PUBCHEM_XLOGP3_AA>
2.5

> <PUBCHEM_EXACT_MASS>
581.904808

> <PUBCHEM_MOLECULAR_FORMULA>
C13H24Cl6O8P2

> <PUBCHEM_MOLECULAR_WEIGHT>
583.0

> <PUBCHEM_SMILES>
C(CCl)OP(=O)(OCCCl)OCC(COP(=O)(OCCCl)OCCCl)(CCl)CCl

> <PUBCHEM_CONNECTIVITY_SMILES>
C(CCl)OP(=O)(OCCCl)OCC(COP(=O)(OCCCl)OCCCl)(CCl)CCl

> <PUBCHEM_CACTVS_TPSA>
89.5

> <PUBCHEM_MONOISOTOPIC_WEIGHT>
579.907758

> <PUBCHEM_TOTAL_CHARGE>
0

> <PUBCHEM_HEAVY_ATOM_COUNT>
29

> <PUBCHEM_ATOM_DEF_STEREO_COUNT>
0

> <PUBCHEM_ATOM_UDEF_STEREO_COUNT>
0

> <PUBCHEM_BOND_DEF_STEREO_COUNT>
0

> <PUBCHEM_BOND_UDEF_STEREO_COUNT>
0

> <PUBCHEM_ISOTOPIC_ATOM_COUNT>
0

> <PUBCHEM_COMPONENT_COUNT>
1

> <PUBCHEM_CACTVS_TAUTO_COUNT>
-1

> <PUBCHEM_COORDINATE_TYPE>
1
5
255

$$$$
