92822
  -OEChem-05122609182D

 17 16  0     1  0  0  0  0  0999 V2000
    6.0010    0.4050    0.0000 O   0  0  0  0  0  0  0  0  0  0  0  0
    4.2690   -0.5950    0.0000 O   0  0  0  0  0  0  0  0  0  0  0  0
    2.5369    0.4050    0.0000 O   0  0  0  0  0  0  0  0  0  0  0  0
    4.2690    0.4050    0.0000 C   0  0  3  0  0  0  0  0  0  0  0  0
    5.1350    0.9050    0.0000 C   0  0  0  0  0  0  0  0  0  0  0  0
    3.4030    0.9050    0.0000 C   0  0  0  0  0  0  0  0  0  0  0  0
    6.8671    0.9050    0.0000 C   0  0  0  0  0  0  0  0  0  0  0  0
    4.8059    0.0950    0.0000 H   0  0  0  0  0  0  0  0  0  0  0  0
    5.5335    1.3800    0.0000 H   0  0  0  0  0  0  0  0  0  0  0  0
    4.7365    1.3800    0.0000 H   0  0  0  0  0  0  0  0  0  0  0  0
    3.8015    1.3800    0.0000 H   0  0  0  0  0  0  0  0  0  0  0  0
    3.0044    1.3800    0.0000 H   0  0  0  0  0  0  0  0  0  0  0  0
    3.7321   -0.9050    0.0000 H   0  0  0  0  0  0  0  0  0  0  0  0
    7.1771    0.3681    0.0000 H   0  0  0  0  0  0  0  0  0  0  0  0
    7.4040    1.2150    0.0000 H   0  0  0  0  0  0  0  0  0  0  0  0
    6.5571    1.4419    0.0000 H   0  0  0  0  0  0  0  0  0  0  0  0
    2.0000    0.7150    0.0000 H   0  0  0  0  0  0  0  0  0  0  0  0
  1  5  1  0  0  0  0
  1  7  1  0  0  0  0
  2  4  1  0  0  0  0
  2 13  1  0  0  0  0
  3  6  1  0  0  0  0
  3 17  1  0  0  0  0
  4  5  1  0  0  0  0
  4  6  1  0  0  0  0
  4  8  1  0  0  0  0
  5  9  1  0  0  0  0
  5 10  1  0  0  0  0
  6 11  1  0  0  0  0
  6 12  1  0  0  0  0
  7 14  1  0  0  0  0
  7 15  1  0  0  0  0
  7 16  1  0  0  0  0
M  END
> <PUBCHEM_COMPOUND_CID>
92822

> <PUBCHEM_COMPOUND_CANONICALIZED>
1

> <PUBCHEM_CACTVS_COMPLEXITY>
37.9

> <PUBCHEM_CACTVS_HBOND_ACCEPTOR>
3

> <PUBCHEM_CACTVS_HBOND_DONOR>
2

> <PUBCHEM_CACTVS_ROTATABLE_BOND>
3

> <PUBCHEM_CACTVS_SUBSKEYS>
AAADccBgMAAAAAAAAAAAAAAAAAAAAAAAAAAAAAAAAAAAAAAAAAAAGgAACAAACBSggAICAAAABgAAAAAAAAAAAAAAAAAAAAAAAAABEAAAAAAAQAABAAADAAAAAAAAAAAAAAAAAAAAAAAAAAAAAAAAAAAAAA==

> <PUBCHEM_IUPAC_OPENEYE_NAME>
3-methoxypropane-1,2-diol

> <PUBCHEM_IUPAC_CAS_NAME>
3-methoxypropane-1,2-diol

> <PUBCHEM_IUPAC_NAME_MARKUP>
3-methoxypropane-1,2-diol

> <PUBCHEM_IUPAC_NAME>
3-methoxypropane-1,2-diol

> <PUBCHEM_IUPAC_SYSTEMATIC_NAME>
3-methoxypropane-1,2-diol

> <PUBCHEM_IUPAC_TRADITIONAL_NAME>
3-methoxypropane-1,2-diol

> <PUBCHEM_IUPAC_INCHI>
InChI=1S/C4H10O3/c1-7-3-4(6)2-5/h4-6H,2-3H2,1H3

> <PUBCHEM_IUPAC_INCHIKEY>
PSJBSUHYCGQTHZ-UHFFFAOYSA-N

> <PUBCHEM_XLOGP3_AA>
-1.2

> <PUBCHEM_EXACT_MASS>
106.062994177

> <PUBCHEM_MOLECULAR_FORMULA>
C4H10O3

> <PUBCHEM_MOLECULAR_WEIGHT>
106.12

> <PUBCHEM_SMILES>
COCC(CO)O

> <PUBCHEM_CONNECTIVITY_SMILES>
COCC(CO)O

> <PUBCHEM_CACTVS_TPSA>
49.7

> <PUBCHEM_MONOISOTOPIC_WEIGHT>
106.062994177

> <PUBCHEM_TOTAL_CHARGE>
0

> <PUBCHEM_HEAVY_ATOM_COUNT>
7

> <PUBCHEM_ATOM_DEF_STEREO_COUNT>
0

> <PUBCHEM_ATOM_UDEF_STEREO_COUNT>
1

> <PUBCHEM_BOND_DEF_STEREO_COUNT>
0

> <PUBCHEM_BOND_UDEF_STEREO_COUNT>
0

> <PUBCHEM_ISOTOPIC_ATOM_COUNT>
0

> <PUBCHEM_COMPONENT_COUNT>
1

> <PUBCHEM_CACTVS_TAUTO_COUNT>
-1

> <PUBCHEM_COORDINATE_TYPE>
1
5
255

> <PUBCHEM_BONDANNOTATIONS>
4  2  3

$$$$
