93038
  -OEChem-05122610022D

 55 55  0     1  0  0  0  0  0999 V2000
    4.3660    0.7500    0.0000 O   0  0  0  0  0  0  0  0  0  0  0  0
    5.3660    0.7500    0.0000 O   0  0  0  0  0  0  0  0  0  0  0  0
    3.3660    0.7500    0.0000 O   0  0  0  0  0  0  0  0  0  0  0  0
    6.3660    0.7500    0.0000 O   0  0  0  0  0  0  0  0  0  0  0  0
    4.0000   -1.6160    0.0000 C   0  0  0  0  0  0  0  0  0  0  0  0
    4.8660   -2.1160    0.0000 C   0  0  0  0  0  0  0  0  0  0  0  0
    5.7321   -1.6160    0.0000 C   0  0  3  0  0  0  0  0  0  0  0  0
    4.0000   -0.6160    0.0000 C   0  0  0  0  0  0  0  0  0  0  0  0
    4.8660   -0.1160    0.0000 C   0  0  0  0  0  0  0  0  0  0  0  0
    5.7321   -0.6160    0.0000 C   0  0  0  0  0  0  0  0  0  0  0  0
    3.5000   -2.4821    0.0000 C   0  0  0  0  0  0  0  0  0  0  0  0
    3.0000   -1.6160    0.0000 C   0  0  0  0  0  0  0  0  0  0  0  0
    6.5981   -2.1160    0.0000 C   0  0  0  0  0  0  0  0  0  0  0  0
    2.8660    1.6160    0.0000 C   0  0  0  0  0  0  0  0  0  0  0  0
    6.8660    1.6160    0.0000 C   0  0  0  0  0  0  0  0  0  0  0  0
    2.3660    2.4821    0.0000 C   0  0  0  0  0  0  0  0  0  0  0  0
    2.0000    1.1160    0.0000 C   0  0  0  0  0  0  0  0  0  0  0  0
    3.7321    2.1160    0.0000 C   0  0  0  0  0  0  0  0  0  0  0  0
    7.3660    2.4821    0.0000 C   0  0  0  0  0  0  0  0  0  0  0  0
    7.7321    1.1160    0.0000 C   0  0  0  0  0  0  0  0  0  0  0  0
    6.0000    2.1160    0.0000 C   0  0  0  0  0  0  0  0  0  0  0  0
    4.4675   -2.5910    0.0000 H   0  0  0  0  0  0  0  0  0  0  0  0
    5.2646   -2.5910    0.0000 H   0  0  0  0  0  0  0  0  0  0  0  0
    5.7321   -2.2360    0.0000 H   0  0  0  0  0  0  0  0  0  0  0  0
    3.7880   -0.0334    0.0000 H   0  0  0  0  0  0  0  0  0  0  0  0
    3.3894   -0.7237    0.0000 H   0  0  0  0  0  0  0  0  0  0  0  0
    6.3426   -0.7237    0.0000 H   0  0  0  0  0  0  0  0  0  0  0  0
    5.9441   -0.0334    0.0000 H   0  0  0  0  0  0  0  0  0  0  0  0
    2.9631   -2.1721    0.0000 H   0  0  0  0  0  0  0  0  0  0  0  0
    3.1900   -3.0190    0.0000 H   0  0  0  0  0  0  0  0  0  0  0  0
    4.0369   -2.7921    0.0000 H   0  0  0  0  0  0  0  0  0  0  0  0
    3.0000   -0.9960    0.0000 H   0  0  0  0  0  0  0  0  0  0  0  0
    2.3800   -1.6160    0.0000 H   0  0  0  0  0  0  0  0  0  0  0  0
    3.0000   -2.2360    0.0000 H   0  0  0  0  0  0  0  0  0  0  0  0
    6.2881   -2.6530    0.0000 H   0  0  0  0  0  0  0  0  0  0  0  0
    7.1350   -2.4260    0.0000 H   0  0  0  0  0  0  0  0  0  0  0  0
    6.9081   -1.5791    0.0000 H   0  0  0  0  0  0  0  0  0  0  0  0
    2.9030    2.7921    0.0000 H   0  0  0  0  0  0  0  0  0  0  0  0
    2.0560    3.0190    0.0000 H   0  0  0  0  0  0  0  0  0  0  0  0
    1.8291    2.1721    0.0000 H   0  0  0  0  0  0  0  0  0  0  0  0
    1.6900    1.6530    0.0000 H   0  0  0  0  0  0  0  0  0  0  0  0
    1.4631    0.8060    0.0000 H   0  0  0  0  0  0  0  0  0  0  0  0
    2.3100    0.5791    0.0000 H   0  0  0  0  0  0  0  0  0  0  0  0
    4.0421    1.5791    0.0000 H   0  0  0  0  0  0  0  0  0  0  0  0
    4.2690    2.4260    0.0000 H   0  0  0  0  0  0  0  0  0  0  0  0
    3.4221    2.6530    0.0000 H   0  0  0  0  0  0  0  0  0  0  0  0
    7.9030    2.1721    0.0000 H   0  0  0  0  0  0  0  0  0  0  0  0
    7.6760    3.0190    0.0000 H   0  0  0  0  0  0  0  0  0  0  0  0
    6.8291    2.7921    0.0000 H   0  0  0  0  0  0  0  0  0  0  0  0
    7.4221    0.5791    0.0000 H   0  0  0  0  0  0  0  0  0  0  0  0
    8.2690    0.8060    0.0000 H   0  0  0  0  0  0  0  0  0  0  0  0
    8.0421    1.6530    0.0000 H   0  0  0  0  0  0  0  0  0  0  0  0
    6.3100    2.6530    0.0000 H   0  0  0  0  0  0  0  0  0  0  0  0
    5.4631    2.4260    0.0000 H   0  0  0  0  0  0  0  0  0  0  0  0
    5.6900    1.5791    0.0000 H   0  0  0  0  0  0  0  0  0  0  0  0
  1  3  1  0  0  0  0
  1  9  1  0  0  0  0
  2  4  1  0  0  0  0
  2  9  1  0  0  0  0
  3 14  1  0  0  0  0
  4 15  1  0  0  0  0
  5  6  1  0  0  0  0
  5  8  1  0  0  0  0
  5 11  1  0  0  0  0
  5 12  1  0  0  0  0
  6  7  1  0  0  0  0
  6 22  1  0  0  0  0
  6 23  1  0  0  0  0
  7 10  1  0  0  0  0
  7 13  1  0  0  0  0
  7 24  1  0  0  0  0
  8  9  1  0  0  0  0
  8 25  1  0  0  0  0
  8 26  1  0  0  0  0
  9 10  1  0  0  0  0
 10 27  1  0  0  0  0
 10 28  1  0  0  0  0
 11 29  1  0  0  0  0
 11 30  1  0  0  0  0
 11 31  1  0  0  0  0
 12 32  1  0  0  0  0
 12 33  1  0  0  0  0
 12 34  1  0  0  0  0
 13 35  1  0  0  0  0
 13 36  1  0  0  0  0
 13 37  1  0  0  0  0
 14 16  1  0  0  0  0
 14 17  1  0  0  0  0
 14 18  1  0  0  0  0
 15 19  1  0  0  0  0
 15 20  1  0  0  0  0
 15 21  1  0  0  0  0
 16 38  1  0  0  0  0
 16 39  1  0  0  0  0
 16 40  1  0  0  0  0
 17 41  1  0  0  0  0
 17 42  1  0  0  0  0
 17 43  1  0  0  0  0
 18 44  1  0  0  0  0
 18 45  1  0  0  0  0
 18 46  1  0  0  0  0
 19 47  1  0  0  0  0
 19 48  1  0  0  0  0
 19 49  1  0  0  0  0
 20 50  1  0  0  0  0
 20 51  1  0  0  0  0
 20 52  1  0  0  0  0
 21 53  1  0  0  0  0
 21 54  1  0  0  0  0
 21 55  1  0  0  0  0
M  END
> <PUBCHEM_COMPOUND_CID>
93038

> <PUBCHEM_COMPOUND_CANONICALIZED>
1

> <PUBCHEM_CACTVS_COMPLEXITY>
318

> <PUBCHEM_CACTVS_HBOND_ACCEPTOR>
4

> <PUBCHEM_CACTVS_HBOND_DONOR>
0

> <PUBCHEM_CACTVS_ROTATABLE_BOND>
6

> <PUBCHEM_CACTVS_SUBSKEYS>
AAADcfB4OAAAAAAAAAAAAAAAAAAAAAAAAAAwAAAAAAAAAAAAAAAAGgAABAAAD0SAgAACCAAAAAAAAAAAAAAAAAAAAAAAAAAAAAAAAAIAAAAAAAAEAAAAAAGAwFAPAAAAAAAAAAAAAAYAAAAAAAAAAAAAAA==

> <PUBCHEM_IUPAC_OPENEYE_NAME>
1,1-bis(tert-butylperoxy)-3,3,5-trimethyl-cyclohexane

> <PUBCHEM_IUPAC_CAS_NAME>
1,1-bis(tert-butyldioxy)-3,3,5-trimethylcyclohexane

> <PUBCHEM_IUPAC_NAME_MARKUP>
1,1-bis(<I>tert</I>-butylperoxy)-3,3,5-trimethylcyclohexane

> <PUBCHEM_IUPAC_NAME>
1,1-bis(tert-butylperoxy)-3,3,5-trimethylcyclohexane

> <PUBCHEM_IUPAC_SYSTEMATIC_NAME>
1,1-bis(tert-butylperoxy)-3,3,5-trimethyl-cyclohexane

> <PUBCHEM_IUPAC_TRADITIONAL_NAME>
1,1-bis(tert-butylperoxy)-3,3,5-trimethyl-cyclohexane

> <PUBCHEM_IUPAC_INCHI>
InChI=1S/C17H34O4/c1-13-10-16(8,9)12-17(11-13,20-18-14(2,3)4)21-19-15(5,6)7/h13H,10-12H2,1-9H3

> <PUBCHEM_IUPAC_INCHIKEY>
NALFRYPTRXKZPN-UHFFFAOYSA-N

> <PUBCHEM_XLOGP3_AA>
5

> <PUBCHEM_EXACT_MASS>
302.24570956

> <PUBCHEM_MOLECULAR_FORMULA>
C17H34O4

> <PUBCHEM_MOLECULAR_WEIGHT>
302.4

> <PUBCHEM_SMILES>
CC1CC(CC(C1)(OOC(C)(C)C)OOC(C)(C)C)(C)C

> <PUBCHEM_CONNECTIVITY_SMILES>
CC1CC(CC(C1)(OOC(C)(C)C)OOC(C)(C)C)(C)C

> <PUBCHEM_CACTVS_TPSA>
36.9

> <PUBCHEM_MONOISOTOPIC_WEIGHT>
302.24570956

> <PUBCHEM_TOTAL_CHARGE>
0

> <PUBCHEM_HEAVY_ATOM_COUNT>
21

> <PUBCHEM_ATOM_DEF_STEREO_COUNT>
0

> <PUBCHEM_ATOM_UDEF_STEREO_COUNT>
1

> <PUBCHEM_BOND_DEF_STEREO_COUNT>
0

> <PUBCHEM_BOND_UDEF_STEREO_COUNT>
0

> <PUBCHEM_ISOTOPIC_ATOM_COUNT>
0

> <PUBCHEM_COMPONENT_COUNT>
1

> <PUBCHEM_CACTVS_TAUTO_COUNT>
-1

> <PUBCHEM_COORDINATE_TYPE>
1
5
255

> <PUBCHEM_BONDANNOTATIONS>
7  13  3

$$$$
