93395
  -OEChem-05122610022D

 11 10  0     0  0  0  0  0  0999 V2000
    3.7690    0.5490    0.0000 Br  0  0  0  0  0  0  0  0  0  0  0  0
    4.7690   -1.1830    0.0000 Br  0  0  0  0  0  0  0  0  0  0  0  0
    2.5369   -0.3170    0.0000 O   0  0  0  0  0  0  0  0  0  0  0  0
    6.0010   -0.3170    0.0000 O   0  5  0  0  0  0  0  0  0  0  0  0
    5.1350    1.1830    0.0000 O   0  0  0  0  0  0  0  0  0  0  0  0
    5.1350    0.1830    0.0000 N   0  3  0  0  0  0  0  0  0  0  0  0
    4.2690   -0.3170    0.0000 C   0  0  0  0  0  0  0  0  0  0  0  0
    3.4030   -0.8170    0.0000 C   0  0  0  0  0  0  0  0  0  0  0  0
    3.0044   -1.2919    0.0000 H   0  0  0  0  0  0  0  0  0  0  0  0
    3.8015   -1.2919    0.0000 H   0  0  0  0  0  0  0  0  0  0  0  0
    2.0000   -0.6270    0.0000 H   0  0  0  0  0  0  0  0  0  0  0  0
  1  7  1  0  0  0  0
  2  7  1  0  0  0  0
  3  8  1  0  0  0  0
  3 11  1  0  0  0  0
  4  6  1  0  0  0  0
  5  6  2  0  0  0  0
  6  7  1  0  0  0  0
  7  8  1  0  0  0  0
  8  9  1  0  0  0  0
  8 10  1  0  0  0  0
M  CHG  2   4  -1   6   1
M  END
> <PUBCHEM_COMPOUND_CID>
93395

> <PUBCHEM_COMPOUND_CANONICALIZED>
1

> <PUBCHEM_CACTVS_COMPLEXITY>
97.9

> <PUBCHEM_CACTVS_HBOND_ACCEPTOR>
3

> <PUBCHEM_CACTVS_HBOND_DONOR>
1

> <PUBCHEM_CACTVS_ROTATABLE_BOND>
1

> <PUBCHEM_CACTVS_SUBSKEYS>
AAADcQBCMAAAGAAAAAAAAAAAAAAAAAAAAAAAAAAAAAAAAAAAAAAAHgBECAABAAChgAIAAAAQQgABAAAAAwAAAAAAAAAgAAAAAAACEAAAAAAAAAAAAAAAAAAAAAAAAAAAAAAAAAAAAAAAAAAAAAAAAAAAAA==

> <PUBCHEM_IUPAC_OPENEYE_NAME>
2,2-dibromo-2-nitro-ethanol

> <PUBCHEM_IUPAC_CAS_NAME>
2,2-dibromo-2-nitroethanol

> <PUBCHEM_IUPAC_NAME_MARKUP>
2,2-dibromo-2-nitroethanol

> <PUBCHEM_IUPAC_NAME>
2,2-dibromo-2-nitroethanol

> <PUBCHEM_IUPAC_SYSTEMATIC_NAME>
2,2-bis(bromanyl)-2-nitro-ethanol

> <PUBCHEM_IUPAC_TRADITIONAL_NAME>
2,2-dibromo-2-nitro-ethanol

> <PUBCHEM_IUPAC_INCHI>
InChI=1S/C2H3Br2NO3/c3-2(4,1-6)5(7)8/h6H,1H2

> <PUBCHEM_IUPAC_INCHIKEY>
FMNZAHDAULEOSO-UHFFFAOYSA-N

> <PUBCHEM_XLOGP3_AA>
0.9

> <PUBCHEM_EXACT_MASS>
248.84592

> <PUBCHEM_MOLECULAR_FORMULA>
C2H3Br2NO3

> <PUBCHEM_MOLECULAR_WEIGHT>
248.86

> <PUBCHEM_SMILES>
C(C([N+](=O)[O-])(Br)Br)O

> <PUBCHEM_CONNECTIVITY_SMILES>
C(C([N+](=O)[O-])(Br)Br)O

> <PUBCHEM_CACTVS_TPSA>
66.1

> <PUBCHEM_MONOISOTOPIC_WEIGHT>
246.84797

> <PUBCHEM_TOTAL_CHARGE>
0

> <PUBCHEM_HEAVY_ATOM_COUNT>
8

> <PUBCHEM_ATOM_DEF_STEREO_COUNT>
0

> <PUBCHEM_ATOM_UDEF_STEREO_COUNT>
0

> <PUBCHEM_BOND_DEF_STEREO_COUNT>
0

> <PUBCHEM_BOND_UDEF_STEREO_COUNT>
0

> <PUBCHEM_ISOTOPIC_ATOM_COUNT>
0

> <PUBCHEM_COMPONENT_COUNT>
1

> <PUBCHEM_CACTVS_TAUTO_COUNT>
-1

> <PUBCHEM_COORDINATE_TYPE>
1
5
255

$$$$
