94505
  -OEChem-05122609392D

 36 37  0     0  0  0  0  0  0999 V2000
    2.8660   -0.5053    0.0000 C   0  0  0  0  0  0  0  0  0  0  0  0
    8.1282   -0.5294    0.0000 C   0  0  0  0  0  0  0  0  0  0  0  0
    5.4641   -0.0053    0.0000 C   0  0  0  0  0  0  0  0  0  0  0  0
    3.7321   -0.0053    0.0000 C   0  0  0  0  0  0  0  0  0  0  0  0
    7.2641   -0.0261    0.0000 C   0  0  0  0  0  0  0  0  0  0  0  0
    5.4641    0.9947    0.0000 C   0  0  0  0  0  0  0  0  0  0  0  0
    4.5981   -0.5053    0.0000 C   0  0  0  0  0  0  0  0  0  0  0  0
    6.3580   -0.5399    0.0000 C   0  0  0  0  0  0  0  0  0  0  0  0
    3.7321    0.9947    0.0000 C   0  0  0  0  0  0  0  0  0  0  0  0
    7.2641    1.0156    0.0000 C   0  0  0  0  0  0  0  0  0  0  0  0
    4.5981    1.4947    0.0000 C   0  0  0  0  0  0  0  0  0  0  0  0
    6.3580    1.5294    0.0000 C   0  0  0  0  0  0  0  0  0  0  0  0
    2.0000   -0.0053    0.0000 C   0  0  0  0  0  0  0  0  0  0  0  0
    2.8660   -1.5053    0.0000 C   0  0  0  0  0  0  0  0  0  0  0  0
    8.9962   -0.0328    0.0000 C   0  0  0  0  0  0  0  0  0  0  0  0
    8.1244   -1.5294    0.0000 C   0  0  0  0  0  0  0  0  0  0  0  0
    2.8660    0.1147    0.0000 H   0  0  0  0  0  0  0  0  0  0  0  0
    8.6639   -0.8415    0.0000 H   0  0  0  0  0  0  0  0  0  0  0  0
    4.5981   -1.1253    0.0000 H   0  0  0  0  0  0  0  0  0  0  0  0
    6.3509   -1.1599    0.0000 H   0  0  0  0  0  0  0  0  0  0  0  0
    3.1951    1.3047    0.0000 H   0  0  0  0  0  0  0  0  0  0  0  0
    7.7999    1.3276    0.0000 H   0  0  0  0  0  0  0  0  0  0  0  0
    4.5981    2.1147    0.0000 H   0  0  0  0  0  0  0  0  0  0  0  0
    6.3509    2.1494    0.0000 H   0  0  0  0  0  0  0  0  0  0  0  0
    2.3100    0.5317    0.0000 H   0  0  0  0  0  0  0  0  0  0  0  0
    1.4631    0.3047    0.0000 H   0  0  0  0  0  0  0  0  0  0  0  0
    1.6900   -0.5422    0.0000 H   0  0  0  0  0  0  0  0  0  0  0  0
    2.2460   -1.5053    0.0000 H   0  0  0  0  0  0  0  0  0  0  0  0
    2.8660   -2.1253    0.0000 H   0  0  0  0  0  0  0  0  0  0  0  0
    3.4860   -1.5053    0.0000 H   0  0  0  0  0  0  0  0  0  0  0  0
    9.3041   -0.5709    0.0000 H   0  0  0  0  0  0  0  0  0  0  0  0
    9.5343    0.2752    0.0000 H   0  0  0  0  0  0  0  0  0  0  0  0
    8.6882    0.5054    0.0000 H   0  0  0  0  0  0  0  0  0  0  0  0
    7.5044   -1.5270    0.0000 H   0  0  0  0  0  0  0  0  0  0  0  0
    8.1220   -2.1494    0.0000 H   0  0  0  0  0  0  0  0  0  0  0  0
    8.7443   -1.5318    0.0000 H   0  0  0  0  0  0  0  0  0  0  0  0
  1  4  1  0  0  0  0
  1 13  1  0  0  0  0
  1 14  1  0  0  0  0
  1 17  1  0  0  0  0
  2  5  1  0  0  0  0
  2 15  1  0  0  0  0
  2 16  1  0  0  0  0
  2 18  1  0  0  0  0
  3  6  2  0  0  0  0
  3  7  1  0  0  0  0
  3  8  1  0  0  0  0
  4  7  2  0  0  0  0
  4  9  1  0  0  0  0
  5  8  2  0  0  0  0
  5 10  1  0  0  0  0
  6 11  1  0  0  0  0
  6 12  1  0  0  0  0
  7 19  1  0  0  0  0
  8 20  1  0  0  0  0
  9 11  2  0  0  0  0
  9 21  1  0  0  0  0
 10 12  2  0  0  0  0
 10 22  1  0  0  0  0
 11 23  1  0  0  0  0
 12 24  1  0  0  0  0
 13 25  1  0  0  0  0
 13 26  1  0  0  0  0
 13 27  1  0  0  0  0
 14 28  1  0  0  0  0
 14 29  1  0  0  0  0
 14 30  1  0  0  0  0
 15 31  1  0  0  0  0
 15 32  1  0  0  0  0
 15 33  1  0  0  0  0
 16 34  1  0  0  0  0
 16 35  1  0  0  0  0
 16 36  1  0  0  0  0
M  END
> <PUBCHEM_COMPOUND_CID>
94505

> <PUBCHEM_COMPOUND_CANONICALIZED>
1

> <PUBCHEM_CACTVS_COMPLEXITY>
194

> <PUBCHEM_CACTVS_HBOND_ACCEPTOR>
0

> <PUBCHEM_CACTVS_HBOND_DONOR>
0

> <PUBCHEM_CACTVS_ROTATABLE_BOND>
2

> <PUBCHEM_CACTVS_SUBSKEYS>
AAADceB4AAAAAAAAAAAAAAAAAAAAAAAAAAAwYAAAAAAAAADBUAAAGAAAAAAADQCAGAAyAMAAAACAAiBCAAACAAAgAAAIiAAAAIgIICKAERCAIAAggAAIiAcAgMAOwAACAAAQAACAAAQAACAAAAAAAAAAAA==

> <PUBCHEM_IUPAC_OPENEYE_NAME>
2,7-diisopropylnaphthalene

> <PUBCHEM_IUPAC_CAS_NAME>
2,7-di(propan-2-yl)naphthalene

> <PUBCHEM_IUPAC_NAME_MARKUP>
2,7-di(propan-2-yl)naphthalene

> <PUBCHEM_IUPAC_NAME>
2,7-di(propan-2-yl)naphthalene

> <PUBCHEM_IUPAC_SYSTEMATIC_NAME>
2,7-di(propan-2-yl)naphthalene

> <PUBCHEM_IUPAC_TRADITIONAL_NAME>
2,7-diisopropylnaphthalene

> <PUBCHEM_IUPAC_INCHI>
InChI=1S/C16H20/c1-11(2)14-7-5-13-6-8-15(12(3)4)10-16(13)9-14/h5-12H,1-4H3

> <PUBCHEM_IUPAC_INCHIKEY>
YGDMAJYAQCDTNG-UHFFFAOYSA-N

> <PUBCHEM_XLOGP3>
5.8

> <PUBCHEM_EXACT_MASS>
212.156500638

> <PUBCHEM_MOLECULAR_FORMULA>
C16H20

> <PUBCHEM_MOLECULAR_WEIGHT>
212.33

> <PUBCHEM_SMILES>
CC(C)C1=CC2=C(C=C1)C=CC(=C2)C(C)C

> <PUBCHEM_CONNECTIVITY_SMILES>
CC(C)C1=CC2=C(C=C1)C=CC(=C2)C(C)C

> <PUBCHEM_CACTVS_TPSA>
0

> <PUBCHEM_MONOISOTOPIC_WEIGHT>
212.156500638

> <PUBCHEM_TOTAL_CHARGE>
0

> <PUBCHEM_HEAVY_ATOM_COUNT>
16

> <PUBCHEM_ATOM_DEF_STEREO_COUNT>
0

> <PUBCHEM_ATOM_UDEF_STEREO_COUNT>
0

> <PUBCHEM_BOND_DEF_STEREO_COUNT>
0

> <PUBCHEM_BOND_UDEF_STEREO_COUNT>
0

> <PUBCHEM_ISOTOPIC_ATOM_COUNT>
0

> <PUBCHEM_COMPONENT_COUNT>
1

> <PUBCHEM_CACTVS_TAUTO_COUNT>
-1

> <PUBCHEM_COORDINATE_TYPE>
1
5
255

> <PUBCHEM_BONDANNOTATIONS>
10  12  8
3  6  8
3  7  8
3  8  8
4  7  8
4  9  8
5  10  8
5  8  8
6  11  8
6  12  8
9  11  8

$$$$
