95241
  -OEChem-05122609472D

 25 26  0     0  0  0  0  0  0999 V2000
    4.8535   -0.4667    0.0000 O   0  0  0  0  0  0  0  0  0  0  0  0
    3.0934    2.5818    0.0000 O   0  0  0  0  0  0  0  0  0  0  0  0
    3.7321    0.9182    0.0000 N   0  0  0  0  0  0  0  0  0  0  0  0
    5.3147    1.2546    0.0000 C   0  0  0  0  0  0  0  0  0  0  0  0
    4.8147    2.1206    0.0000 C   0  0  0  0  0  0  0  0  0  0  0  0
    2.8660    0.4182    0.0000 C   0  0  0  0  0  0  0  0  0  0  0  0
    4.6456    0.5114    0.0000 C   0  0  0  0  0  0  0  0  0  0  0  0
    3.8366    1.9127    0.0000 C   0  0  0  0  0  0  0  0  0  0  0  0
    2.8660   -0.5818    0.0000 C   0  0  0  0  0  0  0  0  0  0  0  0
    2.0000   -1.0818    0.0000 C   0  0  0  0  0  0  0  0  0  0  0  0
    3.7321   -1.0818    0.0000 C   0  0  0  0  0  0  0  0  0  0  0  0
    2.0000   -2.0818    0.0000 C   0  0  0  0  0  0  0  0  0  0  0  0
    3.7321   -2.0818    0.0000 C   0  0  0  0  0  0  0  0  0  0  0  0
    2.8660   -2.5818    0.0000 C   0  0  0  0  0  0  0  0  0  0  0  0
    5.7296    0.7938    0.0000 H   0  0  0  0  0  0  0  0  0  0  0  0
    5.8163    1.6190    0.0000 H   0  0  0  0  0  0  0  0  0  0  0  0
    5.3811    2.3728    0.0000 H   0  0  0  0  0  0  0  0  0  0  0  0
    4.6231    2.7103    0.0000 H   0  0  0  0  0  0  0  0  0  0  0  0
    2.6540    1.0008    0.0000 H   0  0  0  0  0  0  0  0  0  0  0  0
    2.2554    0.3105    0.0000 H   0  0  0  0  0  0  0  0  0  0  0  0
    1.4631   -0.7718    0.0000 H   0  0  0  0  0  0  0  0  0  0  0  0
    4.2690   -0.7718    0.0000 H   0  0  0  0  0  0  0  0  0  0  0  0
    1.4631   -2.3918    0.0000 H   0  0  0  0  0  0  0  0  0  0  0  0
    4.2690   -2.3918    0.0000 H   0  0  0  0  0  0  0  0  0  0  0  0
    2.8660   -3.2018    0.0000 H   0  0  0  0  0  0  0  0  0  0  0  0
  1  7  2  0  0  0  0
  2  8  2  0  0  0  0
  3  6  1  0  0  0  0
  3  7  1  0  0  0  0
  3  8  1  0  0  0  0
  4  5  1  0  0  0  0
  4  7  1  0  0  0  0
  4 15  1  0  0  0  0
  4 16  1  0  0  0  0
  5  8  1  0  0  0  0
  5 17  1  0  0  0  0
  5 18  1  0  0  0  0
  6  9  1  0  0  0  0
  6 19  1  0  0  0  0
  6 20  1  0  0  0  0
  9 10  2  0  0  0  0
  9 11  1  0  0  0  0
 10 12  1  0  0  0  0
 10 21  1  0  0  0  0
 11 13  2  0  0  0  0
 11 22  1  0  0  0  0
 12 14  2  0  0  0  0
 12 23  1  0  0  0  0
 13 14  1  0  0  0  0
 13 24  1  0  0  0  0
 14 25  1  0  0  0  0
M  END
> <PUBCHEM_COMPOUND_CID>
95241

> <PUBCHEM_COMPOUND_CANONICALIZED>
1

> <PUBCHEM_CACTVS_COMPLEXITY>
228

> <PUBCHEM_CACTVS_HBOND_ACCEPTOR>
2

> <PUBCHEM_CACTVS_HBOND_DONOR>
0

> <PUBCHEM_CACTVS_ROTATABLE_BOND>
2

> <PUBCHEM_CACTVS_SUBSKEYS>
AAADccByMAAAAAAAAAAAAAAAAAAAAWAAAAAwAAAAAAAAAAABAAAAHgAAAAAADADBmAQwAIMAAACIAiFSEACCAAAgAAAIiAEIBIgIIDKAkRGEIAhghiCIiAcVgAAOAAAAAAAAAAAAAAAAAAAAAAAAAAAAAA==

> <PUBCHEM_IUPAC_OPENEYE_NAME>
1-benzylpyrrolidine-2,5-dione

> <PUBCHEM_IUPAC_CAS_NAME>
1-(phenylmethyl)pyrrolidine-2,5-dione

> <PUBCHEM_IUPAC_NAME_MARKUP>
1-benzylpyrrolidine-2,5-dione

> <PUBCHEM_IUPAC_NAME>
1-benzylpyrrolidine-2,5-dione

> <PUBCHEM_IUPAC_SYSTEMATIC_NAME>
1-(phenylmethyl)pyrrolidine-2,5-dione

> <PUBCHEM_IUPAC_TRADITIONAL_NAME>
1-benzylpyrrolidine-2,5-quinone

> <PUBCHEM_IUPAC_INCHI>
InChI=1S/C11H11NO2/c13-10-6-7-11(14)12(10)8-9-4-2-1-3-5-9/h1-5H,6-8H2

> <PUBCHEM_IUPAC_INCHIKEY>
IONNJVQITCVNHK-UHFFFAOYSA-N

> <PUBCHEM_XLOGP3_AA>
0.6

> <PUBCHEM_EXACT_MASS>
189.078978594

> <PUBCHEM_MOLECULAR_FORMULA>
C11H11NO2

> <PUBCHEM_MOLECULAR_WEIGHT>
189.21

> <PUBCHEM_SMILES>
C1CC(=O)N(C1=O)CC2=CC=CC=C2

> <PUBCHEM_CONNECTIVITY_SMILES>
C1CC(=O)N(C1=O)CC2=CC=CC=C2

> <PUBCHEM_CACTVS_TPSA>
37.4

> <PUBCHEM_MONOISOTOPIC_WEIGHT>
189.078978594

> <PUBCHEM_TOTAL_CHARGE>
0

> <PUBCHEM_HEAVY_ATOM_COUNT>
14

> <PUBCHEM_ATOM_DEF_STEREO_COUNT>
0

> <PUBCHEM_ATOM_UDEF_STEREO_COUNT>
0

> <PUBCHEM_BOND_DEF_STEREO_COUNT>
0

> <PUBCHEM_BOND_UDEF_STEREO_COUNT>
0

> <PUBCHEM_ISOTOPIC_ATOM_COUNT>
0

> <PUBCHEM_COMPONENT_COUNT>
1

> <PUBCHEM_CACTVS_TAUTO_COUNT>
-1

> <PUBCHEM_COORDINATE_TYPE>
1
5
255

> <PUBCHEM_BONDANNOTATIONS>
10  12  8
11  13  8
12  14  8
13  14  8
9  10  8
9  11  8

$$$$
