97768
  -OEChem-05122609162D

 22 24  0     1  0  0  0  0  0999 V2000
    5.4989    1.1477    0.0000 Cl  0  0  0  0  0  0  0  0  0  0  0  0
    4.7225   -1.7500    0.0000 Cl  0  0  0  0  0  0  0  0  0  0  0  0
    4.6080    2.1590    0.0000 Cl  0  0  0  0  0  0  0  0  0  0  0  0
    3.5899    1.5712    0.0000 Cl  0  0  0  0  0  0  0  0  0  0  0  0
    7.5051    0.1730    0.0000 Cl  0  0  0  0  0  0  0  0  0  0  0  0
    6.8802   -2.1590    0.0000 Cl  0  0  0  0  0  0  0  0  0  0  0  0
    2.0000   -1.4295    0.0000 O   0  0  0  0  0  0  0  0  0  0  0  0
    3.2666   -0.4364    0.0000 C   0  0  3  0  0  0  0  0  0  0  0  0
    3.6086   -1.3761    0.0000 C   0  0  3  0  0  0  0  0  0  0  0  0
    5.2401    0.1818    0.0000 C   0  0  3  0  0  0  0  0  0  0  0  0
    4.9813   -0.7841    0.0000 C   0  0  3  0  0  0  0  0  0  0  0  0
    4.5035    1.1644    0.0000 C   0  0  0  0  0  0  0  0  0  0  0  0
    2.2732   -0.4737    0.0000 C   0  0  0  0  0  0  0  0  0  0  0  0
    2.8237   -1.9861    0.0000 C   0  0  0  0  0  0  0  0  0  0  0  0
    6.6390   -0.3270    0.0000 C   0  0  0  0  0  0  0  0  0  0  0  0
    6.3802   -1.2929    0.0000 C   0  0  0  0  0  0  0  0  0  0  0  0
    3.1613    0.1746    0.0000 H   0  0  0  0  0  0  0  0  0  0  0  0
    3.9241   -1.9098    0.0000 H   0  0  0  0  0  0  0  0  0  0  0  0
    2.3152    0.1449    0.0000 H   0  0  0  0  0  0  0  0  0  0  0  0
    1.6624   -0.3669    0.0000 H   0  0  0  0  0  0  0  0  0  0  0  0
    2.4244   -2.4605    0.0000 H   0  0  0  0  0  0  0  0  0  0  0  0
    3.2534   -2.4330    0.0000 H   0  0  0  0  0  0  0  0  0  0  0  0
  1 10  1  0  0  0  0
  2 11  1  0  0  0  0
  3 12  1  0  0  0  0
  4 12  1  0  0  0  0
  5 15  1  0  0  0  0
  6 16  1  0  0  0  0
  7 13  1  0  0  0  0
  7 14  1  0  0  0  0
  8  9  1  0  0  0  0
  8 10  1  0  0  0  0
  8 13  1  0  0  0  0
  8 17  1  0  0  0  0
  9 11  1  0  0  0  0
  9 14  1  0  0  0  0
  9 18  1  0  0  0  0
 10 12  1  0  0  0  0
 10 15  1  0  0  0  0
 11 12  1  0  0  0  0
 11 16  1  0  0  0  0
 13 19  1  0  0  0  0
 13 20  1  0  0  0  0
 14 21  1  0  0  0  0
 14 22  1  0  0  0  0
 15 16  2  0  0  0  0
M  END
> <PUBCHEM_COMPOUND_CID>
97768

> <PUBCHEM_COMPOUND_CANONICALIZED>
1

> <PUBCHEM_CACTVS_COMPLEXITY>
373

> <PUBCHEM_CACTVS_HBOND_ACCEPTOR>
1

> <PUBCHEM_CACTVS_HBOND_DONOR>
0

> <PUBCHEM_CACTVS_ROTATABLE_BOND>
0

> <PUBCHEM_CACTVS_SUBSKEYS>
AAADcYBwIAAHAAAAAAAAAAAAAAAAAaIEAAAgAAAAAAASAAAAAAAAGgIAAAAADQKggIIAAAAABACAAABAAAAAAAAgAAAACEAAAggAAAIBAAACAAAEgAAIAAOAwDAOgAAAAAAAAAAAAAAAAAAAARAASIACAA==

> <PUBCHEM_IUPAC_OPENEYE_NAME>
1,7,8,9,10,10-hexachloro-4-oxatricyclo[5.2.1.02,6]dec-8-ene

> <PUBCHEM_IUPAC_CAS_NAME>
1,7,8,9,10,10-hexachloro-4-oxatricyclo[5.2.1.02,6]dec-8-ene

> <PUBCHEM_IUPAC_NAME_MARKUP>
1,7,8,9,10,10-hexachloro-4-oxatricyclo[5.2.1.0<SUP>2,6</SUP>]dec-8-ene

> <PUBCHEM_IUPAC_NAME>
1,7,8,9,10,10-hexachloro-4-oxatricyclo[5.2.1.02,6]dec-8-ene

> <PUBCHEM_IUPAC_SYSTEMATIC_NAME>
1,7,8,9,10,10-hexakis(chloranyl)-4-oxatricyclo[5.2.1.02,6]dec-8-ene

> <PUBCHEM_IUPAC_TRADITIONAL_NAME>
1,7,8,9,10,10-hexachloro-4-oxatricyclo[5.2.1.02,6]dec-8-ene

> <PUBCHEM_IUPAC_INCHI>
InChI=1S/C9H6Cl6O/c10-5-6(11)8(13)4-2-16-1-3(4)7(5,12)9(8,14)15/h3-4H,1-2H2

> <PUBCHEM_IUPAC_INCHIKEY>
CKPWHXBGVRURFU-UHFFFAOYSA-N

> <PUBCHEM_XLOGP3>
4

> <PUBCHEM_EXACT_MASS>
341.852031

> <PUBCHEM_MOLECULAR_FORMULA>
C9H6Cl6O

> <PUBCHEM_MOLECULAR_WEIGHT>
342.9

> <PUBCHEM_SMILES>
C1C2C(CO1)C3(C(=C(C2(C3(Cl)Cl)Cl)Cl)Cl)Cl

> <PUBCHEM_CONNECTIVITY_SMILES>
C1C2C(CO1)C3(C(=C(C2(C3(Cl)Cl)Cl)Cl)Cl)Cl

> <PUBCHEM_CACTVS_TPSA>
9.2

> <PUBCHEM_MONOISOTOPIC_WEIGHT>
339.854981

> <PUBCHEM_TOTAL_CHARGE>
0

> <PUBCHEM_HEAVY_ATOM_COUNT>
16

> <PUBCHEM_ATOM_DEF_STEREO_COUNT>
0

> <PUBCHEM_ATOM_UDEF_STEREO_COUNT>
4

> <PUBCHEM_BOND_DEF_STEREO_COUNT>
0

> <PUBCHEM_BOND_UDEF_STEREO_COUNT>
0

> <PUBCHEM_ISOTOPIC_ATOM_COUNT>
0

> <PUBCHEM_COMPONENT_COUNT>
1

> <PUBCHEM_CACTVS_TAUTO_COUNT>
-1

> <PUBCHEM_COORDINATE_TYPE>
1
5
255

> <PUBCHEM_BONDANNOTATIONS>
10  1  3
11  2  3
8  13  3
9  14  3

$$$$
