98034
  -OEChem-08032615202D

 26 26  0     1  0  0  0  0  0999 V2000
    4.6760   -0.2985    0.0000 O   0  0  0  0  0  0  0  0  0  0  0  0
    2.3100   -1.6645    0.0000 O   0  0  0  0  0  0  0  0  0  0  0  0
    3.8100   -0.7985    0.0000 C   0  0  3  0  0  0  0  0  0  0  0  0
    2.9440   -0.2985    0.0000 C   0  0  0  0  0  0  0  0  0  0  0  0
    3.8100    1.2015    0.0000 C   0  0  3  0  0  0  0  0  0  0  0  0
    2.9440    0.7015    0.0000 C   0  0  0  0  0  0  0  0  0  0  0  0
    4.6760    0.7015    0.0000 C   0  0  0  0  0  0  0  0  0  0  0  0
    3.3100   -1.6645    0.0000 C   0  0  0  0  0  0  0  0  0  0  0  0
    4.3100   -1.6645    0.0000 C   0  0  0  0  0  0  0  0  0  0  0  0
    3.8100    2.2015    0.0000 C   0  0  0  0  0  0  0  0  0  0  0  0
    2.3334   -0.1909    0.0000 H   0  0  0  0  0  0  0  0  0  0  0  0
    2.7319   -0.8811    0.0000 H   0  0  0  0  0  0  0  0  0  0  0  0
    4.3469    1.5115    0.0000 H   0  0  0  0  0  0  0  0  0  0  0  0
    2.7319    1.2841    0.0000 H   0  0  0  0  0  0  0  0  0  0  0  0
    2.3334    0.5938    0.0000 H   0  0  0  0  0  0  0  0  0  0  0  0
    5.2866    0.5938    0.0000 H   0  0  0  0  0  0  0  0  0  0  0  0
    4.8881    1.2841    0.0000 H   0  0  0  0  0  0  0  0  0  0  0  0
    3.2023   -2.2751    0.0000 H   0  0  0  0  0  0  0  0  0  0  0  0
    3.8926   -1.8766    0.0000 H   0  0  0  0  0  0  0  0  0  0  0  0
    3.7731   -1.9745    0.0000 H   0  0  0  0  0  0  0  0  0  0  0  0
    4.6200   -2.2015    0.0000 H   0  0  0  0  0  0  0  0  0  0  0  0
    4.8469   -1.3545    0.0000 H   0  0  0  0  0  0  0  0  0  0  0  0
    4.4300    2.2015    0.0000 H   0  0  0  0  0  0  0  0  0  0  0  0
    3.8100    2.8215    0.0000 H   0  0  0  0  0  0  0  0  0  0  0  0
    3.1900    2.2015    0.0000 H   0  0  0  0  0  0  0  0  0  0  0  0
    2.0000   -2.2015    0.0000 H   0  0  0  0  0  0  0  0  0  0  0  0
  1  3  1  0  0  0  0
  1  7  1  0  0  0  0
  2  8  1  0  0  0  0
  2 26  1  0  0  0  0
  3  4  1  0  0  0  0
  3  8  1  0  0  0  0
  3  9  1  0  0  0  0
  4  6  1  0  0  0  0
  4 11  1  0  0  0  0
  4 12  1  0  0  0  0
  5  6  1  0  0  0  0
  5  7  1  0  0  0  0
  5 10  1  0  0  0  0
  5 13  1  0  0  0  0
  6 14  1  0  0  0  0
  6 15  1  0  0  0  0
  7 16  1  0  0  0  0
  7 17  1  0  0  0  0
  8 18  1  0  0  0  0
  8 19  1  0  0  0  0
  9 20  1  0  0  0  0
  9 21  1  0  0  0  0
  9 22  1  0  0  0  0
 10 23  1  0  0  0  0
 10 24  1  0  0  0  0
 10 25  1  0  0  0  0
M  END
> <PUBCHEM_COMPOUND_CID>
98034

> <PUBCHEM_COMPOUND_CANONICALIZED>
1

> <PUBCHEM_CACTVS_COMPLEXITY>
114

> <PUBCHEM_CACTVS_HBOND_ACCEPTOR>
2

> <PUBCHEM_CACTVS_HBOND_DONOR>
1

> <PUBCHEM_CACTVS_ROTATABLE_BOND>
1

> <PUBCHEM_CACTVS_SUBSKEYS>
AAADceBwMAAAAAAAAAAAAAAAAAAAAAAAAAAkAAAAAAAAAAAAAAAAGgAACAAADUSggAICAAAABgAAAAAAAAAAAAAAAAAAAAAAAAABEAIAAAACQAAEAAADAAGAQBAMAAAAAAAAAAAAAAAAAAAAAAAAAAAAAA==

> <PUBCHEM_IUPAC_OPENEYE_NAME>
(2,5-dimethyltetrahydropyran-2-yl)methanol

> <PUBCHEM_IUPAC_CAS_NAME>
(2,5-dimethyl-2-oxanyl)methanol

> <PUBCHEM_IUPAC_NAME_MARKUP>
(2,5-dimethyloxan-2-yl)methanol

> <PUBCHEM_IUPAC_NAME>
(2,5-dimethyloxan-2-yl)methanol

> <PUBCHEM_IUPAC_SYSTEMATIC_NAME>
(2,5-dimethyloxan-2-yl)methanol

> <PUBCHEM_IUPAC_TRADITIONAL_NAME>
(2,5-dimethyltetrahydropyran-2-yl)methanol

> <PUBCHEM_IUPAC_INCHI>
InChI=1S/C8H16O2/c1-7-3-4-8(2,6-9)10-5-7/h7,9H,3-6H2,1-2H3

> <PUBCHEM_IUPAC_INCHIKEY>
BJQJGDGEKXRYBA-UHFFFAOYSA-N

> <PUBCHEM_XLOGP3_AA>
0.9

> <PUBCHEM_EXACT_MASS>
144.115029749

> <PUBCHEM_MOLECULAR_FORMULA>
C8H16O2

> <PUBCHEM_MOLECULAR_WEIGHT>
144.21

> <PUBCHEM_SMILES>
CC1CCC(OC1)(C)CO

> <PUBCHEM_CONNECTIVITY_SMILES>
CC1CCC(OC1)(C)CO

> <PUBCHEM_CACTVS_TPSA>
29.5

> <PUBCHEM_MONOISOTOPIC_WEIGHT>
144.115029749

> <PUBCHEM_TOTAL_CHARGE>
0

> <PUBCHEM_HEAVY_ATOM_COUNT>
10

> <PUBCHEM_ATOM_DEF_STEREO_COUNT>
0

> <PUBCHEM_ATOM_UDEF_STEREO_COUNT>
2

> <PUBCHEM_BOND_DEF_STEREO_COUNT>
0

> <PUBCHEM_BOND_UDEF_STEREO_COUNT>
0

> <PUBCHEM_ISOTOPIC_ATOM_COUNT>
0

> <PUBCHEM_COMPONENT_COUNT>
1

> <PUBCHEM_CACTVS_TAUTO_COUNT>
-1

> <PUBCHEM_COORDINATE_TYPE>
1
5
255

> <PUBCHEM_BONDANNOTATIONS>
3  9  3
5  10  3

$$$$
