98266
  -OEChem-05122609182D

 27 26  0     1  0  0  0  0  0999 V2000
    2.5369   -0.8660    0.0000 O   0  0  0  0  0  0  0  0  0  0  0  0
    3.4030   -0.3660    0.0000 C   0  0  3  0  0  0  0  0  0  0  0  0
    4.2690    0.1340    0.0000 C   0  0  0  0  0  0  0  0  0  0  0  0
    5.1350   -0.3660    0.0000 C   0  0  0  0  0  0  0  0  0  0  0  0
    2.9030    0.5000    0.0000 C   0  0  0  0  0  0  0  0  0  0  0  0
    3.9030   -1.2321    0.0000 C   0  0  0  0  0  0  0  0  0  0  0  0
    6.0010    0.1340    0.0000 C   0  0  0  0  0  0  0  0  0  0  0  0
    5.1350   -1.3660    0.0000 C   0  0  0  0  0  0  0  0  0  0  0  0
    3.4030    1.3660    0.0000 C   0  0  0  0  0  0  0  0  0  0  0  0
    4.6675    0.6089    0.0000 H   0  0  0  0  0  0  0  0  0  0  0  0
    3.8705    0.6089    0.0000 H   0  0  0  0  0  0  0  0  0  0  0  0
    5.1350    0.2540    0.0000 H   0  0  0  0  0  0  0  0  0  0  0  0
    2.4280    0.8985    0.0000 H   0  0  0  0  0  0  0  0  0  0  0  0
    2.4280    0.1015    0.0000 H   0  0  0  0  0  0  0  0  0  0  0  0
    3.3660   -1.5421    0.0000 H   0  0  0  0  0  0  0  0  0  0  0  0
    4.2130   -1.7690    0.0000 H   0  0  0  0  0  0  0  0  0  0  0  0
    4.4399   -0.9221    0.0000 H   0  0  0  0  0  0  0  0  0  0  0  0
    6.3110   -0.4030    0.0000 H   0  0  0  0  0  0  0  0  0  0  0  0
    6.5380    0.4440    0.0000 H   0  0  0  0  0  0  0  0  0  0  0  0
    5.6910    0.6709    0.0000 H   0  0  0  0  0  0  0  0  0  0  0  0
    4.5150   -1.3660    0.0000 H   0  0  0  0  0  0  0  0  0  0  0  0
    5.1350   -1.9860    0.0000 H   0  0  0  0  0  0  0  0  0  0  0  0
    5.7550   -1.3660    0.0000 H   0  0  0  0  0  0  0  0  0  0  0  0
    3.9399    1.0560    0.0000 H   0  0  0  0  0  0  0  0  0  0  0  0
    3.7130    1.9030    0.0000 H   0  0  0  0  0  0  0  0  0  0  0  0
    2.8660    1.6760    0.0000 H   0  0  0  0  0  0  0  0  0  0  0  0
    2.0000   -0.5560    0.0000 H   0  0  0  0  0  0  0  0  0  0  0  0
  1  2  1  0  0  0  0
  1 27  1  0  0  0  0
  2  3  1  0  0  0  0
  2  5  1  0  0  0  0
  2  6  1  0  0  0  0
  3  4  1  0  0  0  0
  3 10  1  0  0  0  0
  3 11  1  0  0  0  0
  4  7  1  0  0  0  0
  4  8  1  0  0  0  0
  4 12  1  0  0  0  0
  5  9  1  0  0  0  0
  5 13  1  0  0  0  0
  5 14  1  0  0  0  0
  6 15  1  0  0  0  0
  6 16  1  0  0  0  0
  6 17  1  0  0  0  0
  7 18  1  0  0  0  0
  7 19  1  0  0  0  0
  7 20  1  0  0  0  0
  8 21  1  0  0  0  0
  8 22  1  0  0  0  0
  8 23  1  0  0  0  0
  9 24  1  0  0  0  0
  9 25  1  0  0  0  0
  9 26  1  0  0  0  0
M  END
> <PUBCHEM_COMPOUND_CID>
98266

> <PUBCHEM_COMPOUND_CANONICALIZED>
1

> <PUBCHEM_CACTVS_COMPLEXITY>
78.6

> <PUBCHEM_CACTVS_HBOND_ACCEPTOR>
1

> <PUBCHEM_CACTVS_HBOND_DONOR>
1

> <PUBCHEM_CACTVS_ROTATABLE_BOND>
3

> <PUBCHEM_CACTVS_SUBSKEYS>
AAADceBwIAAAAAAAAAAAAAAAAAAAAAAAAAAAAAAAAAAAAAAAAAAAGgAACAAADUSAgAACAAAAAgAAAAAAAAAAAAAAAAAAAAAAAAAAAAIAAAAAQAAEAAAAAAEAAAAOAAAAAAAAAAAAAAAAAAAAAAAAAAAAAA==

> <PUBCHEM_IUPAC_OPENEYE_NAME>
3,5-dimethylhexan-3-ol

> <PUBCHEM_IUPAC_CAS_NAME>
3,5-dimethyl-3-hexanol

> <PUBCHEM_IUPAC_NAME_MARKUP>
3,5-dimethylhexan-3-ol

> <PUBCHEM_IUPAC_NAME>
3,5-dimethylhexan-3-ol

> <PUBCHEM_IUPAC_SYSTEMATIC_NAME>
3,5-dimethylhexan-3-ol

> <PUBCHEM_IUPAC_TRADITIONAL_NAME>
3,5-dimethylhexan-3-ol

> <PUBCHEM_IUPAC_INCHI>
InChI=1S/C8H18O/c1-5-8(4,9)6-7(2)3/h7,9H,5-6H2,1-4H3

> <PUBCHEM_IUPAC_INCHIKEY>
INMGJWCKWKKMPN-UHFFFAOYSA-N

> <PUBCHEM_XLOGP3_AA>
2.4

> <PUBCHEM_EXACT_MASS>
130.135765193

> <PUBCHEM_MOLECULAR_FORMULA>
C8H18O

> <PUBCHEM_MOLECULAR_WEIGHT>
130.23

> <PUBCHEM_SMILES>
CCC(C)(CC(C)C)O

> <PUBCHEM_CONNECTIVITY_SMILES>
CCC(C)(CC(C)C)O

> <PUBCHEM_CACTVS_TPSA>
20.2

> <PUBCHEM_MONOISOTOPIC_WEIGHT>
130.135765193

> <PUBCHEM_TOTAL_CHARGE>
0

> <PUBCHEM_HEAVY_ATOM_COUNT>
9

> <PUBCHEM_ATOM_DEF_STEREO_COUNT>
0

> <PUBCHEM_ATOM_UDEF_STEREO_COUNT>
1

> <PUBCHEM_BOND_DEF_STEREO_COUNT>
0

> <PUBCHEM_BOND_UDEF_STEREO_COUNT>
0

> <PUBCHEM_ISOTOPIC_ATOM_COUNT>
0

> <PUBCHEM_COMPONENT_COUNT>
1

> <PUBCHEM_CACTVS_TAUTO_COUNT>
-1

> <PUBCHEM_COORDINATE_TYPE>
1
5
255

> <PUBCHEM_BONDANNOTATIONS>
2  6  3

$$$$
