98460
  -OEChem-05122609592D

 48 51  0     1  0  0  0  0  0999 V2000
    4.6660    0.2182    0.0000 C   0  0  3  0  0  0  0  0  0  0  0  0
    5.5321   -0.2818    0.0000 C   0  0  3  0  0  0  0  0  0  0  0  0
    3.8000   -0.2818    0.0000 C   0  0  3  0  0  0  0  0  0  0  0  0
    6.4421    0.2251    0.0000 C   0  0  3  0  0  0  0  0  0  0  0  0
    3.8000   -1.2818    0.0000 C   0  0  3  0  0  0  0  0  0  0  0  0
    6.4501    1.2667    0.0000 C   0  0  3  0  0  0  0  0  0  0  0  0
    4.6500    1.2598    0.0000 C   0  0  0  0  0  0  0  0  0  0  0  0
    5.5321   -1.2818    0.0000 C   0  0  0  0  0  0  0  0  0  0  0  0
    5.5480    1.7875    0.0000 C   0  0  0  0  0  0  0  0  0  0  0  0
    4.6660   -1.7818    0.0000 C   0  0  0  0  0  0  0  0  0  0  0  0
    2.9061    0.2529    0.0000 C   0  0  0  0  0  0  0  0  0  0  0  0
    7.3689   -0.3390    0.0000 C   0  0  0  0  0  0  0  0  0  0  0  0
    2.9061   -1.8164    0.0000 C   0  0  0  0  0  0  0  0  0  0  0  0
    7.3855    1.8164    0.0000 C   0  0  0  0  0  0  0  0  0  0  0  0
    2.0000   -0.2609    0.0000 C   0  0  0  0  0  0  0  0  0  0  0  0
    8.3168    0.1890    0.0000 C   0  0  0  0  0  0  0  0  0  0  0  0
    2.0000   -1.3026    0.0000 C   0  0  0  0  0  0  0  0  0  0  0  0
    8.3252    1.2739    0.0000 C   0  0  0  0  0  0  0  0  0  0  0  0
    5.2006    0.5324    0.0000 H   0  0  0  0  0  0  0  0  0  0  0  0
    6.0666   -0.5959    0.0000 H   0  0  0  0  0  0  0  0  0  0  0  0
    3.8048    0.3382    0.0000 H   0  0  0  0  0  0  0  0  0  0  0  0
    6.4301   -0.3948    0.0000 H   0  0  0  0  0  0  0  0  0  0  0  0
    3.8048   -1.9017    0.0000 H   0  0  0  0  0  0  0  0  0  0  0  0
    6.4477    1.8867    0.0000 H   0  0  0  0  0  0  0  0  0  0  0  0
    4.4320    1.8402    0.0000 H   0  0  0  0  0  0  0  0  0  0  0  0
    4.0408    1.1443    0.0000 H   0  0  0  0  0  0  0  0  0  0  0  0
    5.7441   -1.8644    0.0000 H   0  0  0  0  0  0  0  0  0  0  0  0
    6.1426   -1.1741    0.0000 H   0  0  0  0  0  0  0  0  0  0  0  0
    5.9453    2.2635    0.0000 H   0  0  0  0  0  0  0  0  0  0  0  0
    5.1471    2.2604    0.0000 H   0  0  0  0  0  0  0  0  0  0  0  0
    4.2675   -2.2567    0.0000 H   0  0  0  0  0  0  0  0  0  0  0  0
    5.0646   -2.2567    0.0000 H   0  0  0  0  0  0  0  0  0  0  0  0
    3.3107    0.7227    0.0000 H   0  0  0  0  0  0  0  0  0  0  0  0
    2.5124    0.7319    0.0000 H   0  0  0  0  0  0  0  0  0  0  0  0
    6.9607   -0.8056    0.0000 H   0  0  0  0  0  0  0  0  0  0  0  0
    7.7588   -0.8210    0.0000 H   0  0  0  0  0  0  0  0  0  0  0  0
    2.5124   -2.2954    0.0000 H   0  0  0  0  0  0  0  0  0  0  0  0
    3.3107   -2.2862    0.0000 H   0  0  0  0  0  0  0  0  0  0  0  0
    7.7828    2.2924    0.0000 H   0  0  0  0  0  0  0  0  0  0  0  0
    6.9846    2.2893    0.0000 H   0  0  0  0  0  0  0  0  0  0  0  0
    1.7909    0.3228    0.0000 H   0  0  0  0  0  0  0  0  0  0  0  0
    1.3891   -0.3670    0.0000 H   0  0  0  0  0  0  0  0  0  0  0  0
    8.5213   -0.3963    0.0000 H   0  0  0  0  0  0  0  0  0  0  0  0
    8.9284    0.2903    0.0000 H   0  0  0  0  0  0  0  0  0  0  0  0
    1.3891   -1.1965    0.0000 H   0  0  0  0  0  0  0  0  0  0  0  0
    1.7909   -1.8863    0.0000 H   0  0  0  0  0  0  0  0  0  0  0  0
    8.9352    1.1631    0.0000 H   0  0  0  0  0  0  0  0  0  0  0  0
    8.5387    1.8560    0.0000 H   0  0  0  0  0  0  0  0  0  0  0  0
  1  2  1  0  0  0  0
  1  3  1  0  0  0  0
  1  7  1  0  0  0  0
  1 19  1  0  0  0  0
  2  4  1  0  0  0  0
  2  8  1  0  0  0  0
  2 20  1  0  0  0  0
  3  5  1  0  0  0  0
  3 11  1  0  0  0  0
  3 21  1  0  0  0  0
  4  6  1  0  0  0  0
  4 12  1  0  0  0  0
  4 22  1  0  0  0  0
  5 10  1  0  0  0  0
  5 13  1  0  0  0  0
  5 23  1  0  0  0  0
  6  9  1  0  0  0  0
  6 14  1  0  0  0  0
  6 24  1  0  0  0  0
  7  9  1  0  0  0  0
  7 25  1  0  0  0  0
  7 26  1  0  0  0  0
  8 10  1  0  0  0  0
  8 27  1  0  0  0  0
  8 28  1  0  0  0  0
  9 29  1  0  0  0  0
  9 30  1  0  0  0  0
 10 31  1  0  0  0  0
 10 32  1  0  0  0  0
 11 15  1  0  0  0  0
 11 33  1  0  0  0  0
 11 34  1  0  0  0  0
 12 16  1  0  0  0  0
 12 35  1  0  0  0  0
 12 36  1  0  0  0  0
 13 17  1  0  0  0  0
 13 37  1  0  0  0  0
 13 38  1  0  0  0  0
 14 18  1  0  0  0  0
 14 39  1  0  0  0  0
 14 40  1  0  0  0  0
 15 17  1  0  0  0  0
 15 41  1  0  0  0  0
 15 42  1  0  0  0  0
 16 18  1  0  0  0  0
 16 43  1  0  0  0  0
 16 44  1  0  0  0  0
 17 45  1  0  0  0  0
 17 46  1  0  0  0  0
 18 47  1  0  0  0  0
 18 48  1  0  0  0  0
M  END
> <PUBCHEM_COMPOUND_CID>
98460

> <PUBCHEM_COMPOUND_CANONICALIZED>
1

> <PUBCHEM_CACTVS_COMPLEXITY>
264

> <PUBCHEM_CACTVS_HBOND_ACCEPTOR>
0

> <PUBCHEM_CACTVS_HBOND_DONOR>
0

> <PUBCHEM_CACTVS_ROTATABLE_BOND>
0

> <PUBCHEM_CACTVS_SUBSKEYS>
AAADceB4AAAAAAAAAAAAAAAAAAAAAAAAAAAwYMGAAAAAAADAAAAAGAAAAAAADQCAAAAAAAAAAAAAAAAAAAAAAAAAAAAAAAAAAAAAAAIAAAAAAAAAAAAAAAEAgMAOgAAAAAAAAACAAAQAACAAAAAAAAAAAA==

> <PUBCHEM_IUPAC_OPENEYE_NAME>
1,2,3,4,4a,4b,5,6,6a,7,8,9,10,10a,10b,11,12,12a-octadecahydrochrysene

> <PUBCHEM_IUPAC_CAS_NAME>
1,2,3,4,4a,4b,5,6,6a,7,8,9,10,10a,10b,11,12,12a-octadecahydrochrysene

> <PUBCHEM_IUPAC_NAME_MARKUP>
1,2,3,4,4<I>a</I>,4<I>b</I>,5,6,6<I>a</I>,7,8,9,10,10<I>a</I>,10<I>b</I>,11,12,12<I>a</I>-octadecahydrochrysene

> <PUBCHEM_IUPAC_NAME>
1,2,3,4,4a,4b,5,6,6a,7,8,9,10,10a,10b,11,12,12a-octadecahydrochrysene

> <PUBCHEM_IUPAC_SYSTEMATIC_NAME>
1,2,3,4,4a,4b,5,6,6a,7,8,9,10,10a,10b,11,12,12a-octadecahydrochrysene

> <PUBCHEM_IUPAC_TRADITIONAL_NAME>
1,2,3,4,4a,4b,5,6,6a,7,8,9,10,10a,10b,11,12,12a-octadecahydrochrysene

> <PUBCHEM_IUPAC_INCHI>
InChI=1S/C18H30/c1-3-7-15-13(5-1)9-11-18-16-8-4-2-6-14(16)10-12-17(15)18/h13-18H,1-12H2

> <PUBCHEM_IUPAC_INCHIKEY>
ZEMKTMFBYLHVNN-UHFFFAOYSA-N

> <PUBCHEM_XLOGP3_AA>
7.4

> <PUBCHEM_EXACT_MASS>
246.234750957

> <PUBCHEM_MOLECULAR_FORMULA>
C18H30

> <PUBCHEM_MOLECULAR_WEIGHT>
246.4

> <PUBCHEM_SMILES>
C1CCC2C(C1)CCC3C2CCC4C3CCCC4

> <PUBCHEM_CONNECTIVITY_SMILES>
C1CCC2C(C1)CCC3C2CCC4C3CCCC4

> <PUBCHEM_CACTVS_TPSA>
0

> <PUBCHEM_MONOISOTOPIC_WEIGHT>
246.234750957

> <PUBCHEM_TOTAL_CHARGE>
0

> <PUBCHEM_HEAVY_ATOM_COUNT>
18

> <PUBCHEM_ATOM_DEF_STEREO_COUNT>
0

> <PUBCHEM_ATOM_UDEF_STEREO_COUNT>
6

> <PUBCHEM_BOND_DEF_STEREO_COUNT>
0

> <PUBCHEM_BOND_UDEF_STEREO_COUNT>
0

> <PUBCHEM_ISOTOPIC_ATOM_COUNT>
0

> <PUBCHEM_COMPONENT_COUNT>
1

> <PUBCHEM_CACTVS_TAUTO_COUNT>
-1

> <PUBCHEM_COORDINATE_TYPE>
1
5
255

> <PUBCHEM_BONDANNOTATIONS>
1  7  3
2  8  3
3  11  3
4  12  3
5  13  3
6  14  3

$$$$
