98467
  -OEChem-05122609122D

 32 32  0     1  0  0  0  0  0999 V2000
    3.3660   -1.1830    0.0000 O   0  0  0  0  0  0  0  0  0  0  0  0
    9.0622   -0.3170    0.0000 O   0  0  0  0  0  0  0  0  0  0  0  0
    2.8660   -0.3170    0.0000 C   0  0  0  0  0  0  0  0  0  0  0  0
    3.8660   -0.3170    0.0000 C   0  0  3  0  0  0  0  0  0  0  0  0
    4.7321    0.1830    0.0000 C   0  0  0  0  0  0  0  0  0  0  0  0
    5.5981   -0.3170    0.0000 C   0  0  0  0  0  0  0  0  0  0  0  0
    2.8660    0.6830    0.0000 C   0  0  0  0  0  0  0  0  0  0  0  0
    2.0000   -0.8170    0.0000 C   0  0  0  0  0  0  0  0  0  0  0  0
    6.4641    0.1830    0.0000 C   0  0  3  0  0  0  0  0  0  0  0  0
    7.3301   -0.3170    0.0000 C   0  0  0  0  0  0  0  0  0  0  0  0
    6.4641    1.1830    0.0000 C   0  0  0  0  0  0  0  0  0  0  0  0
    8.1962    0.1830    0.0000 C   0  0  0  0  0  0  0  0  0  0  0  0
    4.3044   -0.7554    0.0000 H   0  0  0  0  0  0  0  0  0  0  0  0
    5.1306    0.6580    0.0000 H   0  0  0  0  0  0  0  0  0  0  0  0
    4.3335    0.6580    0.0000 H   0  0  0  0  0  0  0  0  0  0  0  0
    5.1996   -0.7919    0.0000 H   0  0  0  0  0  0  0  0  0  0  0  0
    5.9966   -0.7919    0.0000 H   0  0  0  0  0  0  0  0  0  0  0  0
    3.4860    0.6830    0.0000 H   0  0  0  0  0  0  0  0  0  0  0  0
    2.8660    1.3030    0.0000 H   0  0  0  0  0  0  0  0  0  0  0  0
    2.2460    0.6830    0.0000 H   0  0  0  0  0  0  0  0  0  0  0  0
    1.6900   -0.2801    0.0000 H   0  0  0  0  0  0  0  0  0  0  0  0
    1.4631   -1.1270    0.0000 H   0  0  0  0  0  0  0  0  0  0  0  0
    2.3100   -1.3539    0.0000 H   0  0  0  0  0  0  0  0  0  0  0  0
    7.0010    0.4930    0.0000 H   0  0  0  0  0  0  0  0  0  0  0  0
    6.9316   -0.7919    0.0000 H   0  0  0  0  0  0  0  0  0  0  0  0
    7.7287   -0.7919    0.0000 H   0  0  0  0  0  0  0  0  0  0  0  0
    7.0841    1.1830    0.0000 H   0  0  0  0  0  0  0  0  0  0  0  0
    6.4641    1.8030    0.0000 H   0  0  0  0  0  0  0  0  0  0  0  0
    5.8441    1.1830    0.0000 H   0  0  0  0  0  0  0  0  0  0  0  0
    8.5947    0.6580    0.0000 H   0  0  0  0  0  0  0  0  0  0  0  0
    7.7976    0.6580    0.0000 H   0  0  0  0  0  0  0  0  0  0  0  0
    9.5991   -0.0070    0.0000 H   0  0  0  0  0  0  0  0  0  0  0  0
  1  3  1  0  0  0  0
  1  4  1  0  0  0  0
  2 12  1  0  0  0  0
  2 32  1  0  0  0  0
  3  4  1  0  0  0  0
  3  7  1  0  0  0  0
  3  8  1  0  0  0  0
  4  5  1  0  0  0  0
  4 13  1  0  0  0  0
  5  6  1  0  0  0  0
  5 14  1  0  0  0  0
  5 15  1  0  0  0  0
  6  9  1  0  0  0  0
  6 16  1  0  0  0  0
  6 17  1  0  0  0  0
  7 18  1  0  0  0  0
  7 19  1  0  0  0  0
  7 20  1  0  0  0  0
  8 21  1  0  0  0  0
  8 22  1  0  0  0  0
  8 23  1  0  0  0  0
  9 10  1  0  0  0  0
  9 11  1  0  0  0  0
  9 24  1  0  0  0  0
 10 12  1  0  0  0  0
 10 25  1  0  0  0  0
 10 26  1  0  0  0  0
 11 27  1  0  0  0  0
 11 28  1  0  0  0  0
 11 29  1  0  0  0  0
 12 30  1  0  0  0  0
 12 31  1  0  0  0  0
M  END
> <PUBCHEM_COMPOUND_CID>
98467

> <PUBCHEM_COMPOUND_CANONICALIZED>
1

> <PUBCHEM_CACTVS_COMPLEXITY>
143

> <PUBCHEM_CACTVS_HBOND_ACCEPTOR>
2

> <PUBCHEM_CACTVS_HBOND_DONOR>
1

> <PUBCHEM_CACTVS_ROTATABLE_BOND>
5

> <PUBCHEM_CACTVS_SUBSKEYS>
AAADceBwMAAAAAAAAAAAAAAAEgAAAAAAAAAAAAAAAAAAAAAAAAAAGgAACAAADVSggAICAAAABgAAAAAAAAAAAAAAAAAAAAAAAAAAEAIAAAACQAAEAAAAAAGAwPAOAAAAAAAAAAAAAAAAAAAAAAAAAAAAAA==

> <PUBCHEM_IUPAC_OPENEYE_NAME>
5-(3,3-dimethyloxiran-2-yl)-3-methyl-pentan-1-ol

> <PUBCHEM_IUPAC_CAS_NAME>
5-(3,3-dimethyl-2-oxiranyl)-3-methyl-1-pentanol

> <PUBCHEM_IUPAC_NAME_MARKUP>
5-(3,3-dimethyloxiran-2-yl)-3-methylpentan-1-ol

> <PUBCHEM_IUPAC_NAME>
5-(3,3-dimethyloxiran-2-yl)-3-methylpentan-1-ol

> <PUBCHEM_IUPAC_SYSTEMATIC_NAME>
5-(3,3-dimethyloxiran-2-yl)-3-methyl-pentan-1-ol

> <PUBCHEM_IUPAC_TRADITIONAL_NAME>
5-(3,3-dimethyloxiran-2-yl)-3-methyl-pentan-1-ol

> <PUBCHEM_IUPAC_INCHI>
InChI=1S/C10H20O2/c1-8(6-7-11)4-5-9-10(2,3)12-9/h8-9,11H,4-7H2,1-3H3

> <PUBCHEM_IUPAC_INCHIKEY>
KCNJNSNPPWXJGM-UHFFFAOYSA-N

> <PUBCHEM_XLOGP3_AA>
1.7

> <PUBCHEM_EXACT_MASS>
172.146329876

> <PUBCHEM_MOLECULAR_FORMULA>
C10H20O2

> <PUBCHEM_MOLECULAR_WEIGHT>
172.26

> <PUBCHEM_SMILES>
CC(CCC1C(O1)(C)C)CCO

> <PUBCHEM_CONNECTIVITY_SMILES>
CC(CCC1C(O1)(C)C)CCO

> <PUBCHEM_CACTVS_TPSA>
32.8

> <PUBCHEM_MONOISOTOPIC_WEIGHT>
172.146329876

> <PUBCHEM_TOTAL_CHARGE>
0

> <PUBCHEM_HEAVY_ATOM_COUNT>
12

> <PUBCHEM_ATOM_DEF_STEREO_COUNT>
0

> <PUBCHEM_ATOM_UDEF_STEREO_COUNT>
2

> <PUBCHEM_BOND_DEF_STEREO_COUNT>
0

> <PUBCHEM_BOND_UDEF_STEREO_COUNT>
0

> <PUBCHEM_ISOTOPIC_ATOM_COUNT>
0

> <PUBCHEM_COMPONENT_COUNT>
1

> <PUBCHEM_CACTVS_TAUTO_COUNT>
-1

> <PUBCHEM_COORDINATE_TYPE>
1
5
255

> <PUBCHEM_BONDANNOTATIONS>
4  5  3
9  11  3

$$$$
