98501
  -OEChem-05122609572D

 27 28  0     1  0  0  0  0  0999 V2000
    2.8660   -1.5173    0.0000 O   0  0  0  0  0  0  0  0  0  0  0  0
    3.7321    0.9827    0.0000 C   0  0  3  0  0  0  0  0  0  0  0  0
    3.7321   -0.0173    0.0000 C   0  0  3  0  0  0  0  0  0  0  0  0
    4.6260    1.5173    0.0000 C   0  0  0  0  0  0  0  0  0  0  0  0
    2.8660    1.4827    0.0000 C   0  0  0  0  0  0  0  0  0  0  0  0
    4.6260   -0.5520    0.0000 C   0  0  0  0  0  0  0  0  0  0  0  0
    5.5321    1.0035    0.0000 C   0  0  0  0  0  0  0  0  0  0  0  0
    5.5321   -0.0381    0.0000 C   0  0  0  0  0  0  0  0  0  0  0  0
    2.0000    0.9827    0.0000 C   0  0  0  0  0  0  0  0  0  0  0  0
    2.8660   -0.5173    0.0000 C   0  0  0  0  0  0  0  0  0  0  0  0
    2.0000   -0.0173    0.0000 C   0  0  0  0  0  0  0  0  0  0  0  0
    3.7273    1.6027    0.0000 H   0  0  0  0  0  0  0  0  0  0  0  0
    3.7273   -0.6373    0.0000 H   0  0  0  0  0  0  0  0  0  0  0  0
    5.0196    1.9964    0.0000 H   0  0  0  0  0  0  0  0  0  0  0  0
    4.2214    1.9871    0.0000 H   0  0  0  0  0  0  0  0  0  0  0  0
    3.2646    1.9576    0.0000 H   0  0  0  0  0  0  0  0  0  0  0  0
    2.4675    1.9576    0.0000 H   0  0  0  0  0  0  0  0  0  0  0  0
    4.2214   -1.0218    0.0000 H   0  0  0  0  0  0  0  0  0  0  0  0
    5.0196   -1.0310    0.0000 H   0  0  0  0  0  0  0  0  0  0  0  0
    6.1429    0.8974    0.0000 H   0  0  0  0  0  0  0  0  0  0  0  0
    5.7411    1.5872    0.0000 H   0  0  0  0  0  0  0  0  0  0  0  0
    5.7411   -0.6218    0.0000 H   0  0  0  0  0  0  0  0  0  0  0  0
    6.1429    0.0679    0.0000 H   0  0  0  0  0  0  0  0  0  0  0  0
    1.7880    1.5653    0.0000 H   0  0  0  0  0  0  0  0  0  0  0  0
    1.3894    0.8750    0.0000 H   0  0  0  0  0  0  0  0  0  0  0  0
    1.3894    0.0903    0.0000 H   0  0  0  0  0  0  0  0  0  0  0  0
    1.7880   -0.5999    0.0000 H   0  0  0  0  0  0  0  0  0  0  0  0
  1 10  2  0  0  0  0
  2  3  1  0  0  0  0
  2  4  1  0  0  0  0
  2  5  1  0  0  0  0
  2 12  1  0  0  0  0
  3  6  1  0  0  0  0
  3 10  1  0  0  0  0
  3 13  1  0  0  0  0
  4  7  1  0  0  0  0
  4 14  1  0  0  0  0
  4 15  1  0  0  0  0
  5  9  1  0  0  0  0
  5 16  1  0  0  0  0
  5 17  1  0  0  0  0
  6  8  1  0  0  0  0
  6 18  1  0  0  0  0
  6 19  1  0  0  0  0
  7  8  1  0  0  0  0
  7 20  1  0  0  0  0
  7 21  1  0  0  0  0
  8 22  1  0  0  0  0
  8 23  1  0  0  0  0
  9 11  1  0  0  0  0
  9 24  1  0  0  0  0
  9 25  1  0  0  0  0
 10 11  1  0  0  0  0
 11 26  1  0  0  0  0
 11 27  1  0  0  0  0
M  END
> <PUBCHEM_COMPOUND_CID>
98501

> <PUBCHEM_COMPOUND_CANONICALIZED>
1

> <PUBCHEM_CACTVS_COMPLEXITY>
162

> <PUBCHEM_CACTVS_HBOND_ACCEPTOR>
1

> <PUBCHEM_CACTVS_HBOND_DONOR>
0

> <PUBCHEM_CACTVS_ROTATABLE_BOND>
0

> <PUBCHEM_CACTVS_SUBSKEYS>
AAADceBwIAAAAAAAAAAAAAAAAAAAAAAAAAAwYAAAAAAAAADAAAAAGgAAAAAADQSAgAAAAAAAAAAIAIAQAAAAAAAAAAAAAAEAAAAAABIAAAAAAAAAAAAAAAEIiICOgAAAAAAAAAAAAAAAACAAAAAAAAAAAA==

> <PUBCHEM_IUPAC_OPENEYE_NAME>
decalin-1-one

> <PUBCHEM_IUPAC_CAS_NAME>
3,4,4a,5,6,7,8,8a-octahydro-2H-naphthalen-1-one

> <PUBCHEM_IUPAC_NAME_MARKUP>
3,4,4<I>a</I>,5,6,7,8,8<I>a</I>-octahydro-2<I>H</I>-naphthalen-1-one

> <PUBCHEM_IUPAC_NAME>
3,4,4a,5,6,7,8,8a-octahydro-2H-naphthalen-1-one

> <PUBCHEM_IUPAC_SYSTEMATIC_NAME>
3,4,4a,5,6,7,8,8a-octahydro-2H-naphthalen-1-one

> <PUBCHEM_IUPAC_TRADITIONAL_NAME>
decalin-1-one

> <PUBCHEM_IUPAC_INCHI>
InChI=1S/C10H16O/c11-10-7-3-5-8-4-1-2-6-9(8)10/h8-9H,1-7H2

> <PUBCHEM_IUPAC_INCHIKEY>
AFEFRXAPJRCTOW-UHFFFAOYSA-N

> <PUBCHEM_XLOGP3_AA>
2.6

> <PUBCHEM_EXACT_MASS>
152.120115130

> <PUBCHEM_MOLECULAR_FORMULA>
C10H16O

> <PUBCHEM_MOLECULAR_WEIGHT>
152.23

> <PUBCHEM_SMILES>
C1CCC2C(C1)CCCC2=O

> <PUBCHEM_CONNECTIVITY_SMILES>
C1CCC2C(C1)CCCC2=O

> <PUBCHEM_CACTVS_TPSA>
17.1

> <PUBCHEM_MONOISOTOPIC_WEIGHT>
152.120115130

> <PUBCHEM_TOTAL_CHARGE>
0

> <PUBCHEM_HEAVY_ATOM_COUNT>
11

> <PUBCHEM_ATOM_DEF_STEREO_COUNT>
0

> <PUBCHEM_ATOM_UDEF_STEREO_COUNT>
2

> <PUBCHEM_BOND_DEF_STEREO_COUNT>
0

> <PUBCHEM_BOND_UDEF_STEREO_COUNT>
0

> <PUBCHEM_ISOTOPIC_ATOM_COUNT>
0

> <PUBCHEM_COMPONENT_COUNT>
1

> <PUBCHEM_CACTVS_TAUTO_COUNT>
-1

> <PUBCHEM_COORDINATE_TYPE>
1
5
255

> <PUBCHEM_BONDANNOTATIONS>
2  4  3
3  6  3

$$$$
