9859771
  -OEChem-05122608192D

 15 14  0     0  0  0  0  0  0999 V2000
    3.4030   -0.7500    0.0000 S   0  0  0  0  0  0  0  0  0  0  0  0
    3.7690    0.6160    0.0000 F   0  0  0  0  0  0  0  0  0  0  0  0
    4.7690   -1.1160    0.0000 F   0  0  0  0  0  0  0  0  0  0  0  0
    4.6350    1.1160    0.0000 F   0  0  0  0  0  0  0  0  0  0  0  0
    5.6350   -0.6160    0.0000 F   0  0  0  0  0  0  0  0  0  0  0  0
    6.8671    1.2500    0.0000 F   0  0  0  0  0  0  0  0  0  0  0  0
    6.5010   -0.1160    0.0000 F   0  0  0  0  0  0  0  0  0  0  0  0
    5.5010    1.6160    0.0000 F   0  0  0  0  0  0  0  0  0  0  0  0
    2.5369   -1.2500    0.0000 O   0  0  0  0  0  0  0  0  0  0  0  0
    2.9030    0.1160    0.0000 O   0  0  0  0  0  0  0  0  0  0  0  0
    3.9030   -1.6160    0.0000 O   0  0  0  0  0  0  0  0  0  0  0  0
    4.2690   -0.2500    0.0000 C   0  0  0  0  0  0  0  0  0  0  0  0
    5.1350    0.2500    0.0000 C   0  0  0  0  0  0  0  0  0  0  0  0
    6.0010    0.7500    0.0000 C   0  0  0  0  0  0  0  0  0  0  0  0
    2.0000   -0.9400    0.0000 H   0  0  0  0  0  0  0  0  0  0  0  0
  1  9  1  0  0  0  0
  1 10  2  0  0  0  0
  1 11  2  0  0  0  0
  1 12  1  0  0  0  0
  2 12  1  0  0  0  0
  3 12  1  0  0  0  0
  4 13  1  0  0  0  0
  5 13  1  0  0  0  0
  6 14  1  0  0  0  0
  7 14  1  0  0  0  0
  8 14  1  0  0  0  0
  9 15  1  0  0  0  0
 12 13  1  0  0  0  0
 13 14  1  0  0  0  0
M  END
> <PUBCHEM_COMPOUND_CID>
9859771

> <PUBCHEM_COMPOUND_CANONICALIZED>
1

> <PUBCHEM_CACTVS_COMPLEXITY>
308

> <PUBCHEM_CACTVS_HBOND_ACCEPTOR>
10

> <PUBCHEM_CACTVS_HBOND_DONOR>
1

> <PUBCHEM_CACTVS_ROTATABLE_BOND>
2

> <PUBCHEM_CACTVS_SUBSKEYS>
AAADcQBAMcBAAAAAAAAAAAAAAAAAAAAAAAAAAAAAAAAAAAAAAAAACQQACAAACAAAQBAAAAAAAIIAAAAAAHBAAAAAAAAAAAAAAAAAAAAAAAAAAAAAAAAAAAAAAAAAAAAAAAAAAAAAAAAAAAAAAAAAAAAAAA==

> <PUBCHEM_IUPAC_OPENEYE_NAME>
1,1,2,2,3,3,3-heptafluoropropane-1-sulfonic acid

> <PUBCHEM_IUPAC_CAS_NAME>
1,1,2,2,3,3,3-heptafluoro-1-propanesulfonic acid

> <PUBCHEM_IUPAC_NAME_MARKUP>
1,1,2,2,3,3,3-heptafluoropropane-1-sulfonic acid

> <PUBCHEM_IUPAC_NAME>
1,1,2,2,3,3,3-heptafluoropropane-1-sulfonic acid

> <PUBCHEM_IUPAC_SYSTEMATIC_NAME>
1,1,2,2,3,3,3-heptakis(fluoranyl)propane-1-sulfonic acid

> <PUBCHEM_IUPAC_TRADITIONAL_NAME>
1,1,2,2,3,3,3-heptafluoropropane-1-sulfonic acid

> <PUBCHEM_IUPAC_INCHI>
InChI=1S/C3HF7O3S/c4-1(5,2(6,7)8)3(9,10)14(11,12)13/h(H,11,12,13)

> <PUBCHEM_IUPAC_INCHIKEY>
XBWQFDNGNOOMDZ-UHFFFAOYSA-N

> <PUBCHEM_XLOGP3_AA>
1.7

> <PUBCHEM_EXACT_MASS>
249.95346220

> <PUBCHEM_MOLECULAR_FORMULA>
C3HF7O3S

> <PUBCHEM_MOLECULAR_WEIGHT>
250.09

> <PUBCHEM_SMILES>
C(C(F)(F)F)(C(F)(F)S(=O)(=O)O)(F)F

> <PUBCHEM_CONNECTIVITY_SMILES>
C(C(F)(F)F)(C(F)(F)S(=O)(=O)O)(F)F

> <PUBCHEM_CACTVS_TPSA>
62.8

> <PUBCHEM_MONOISOTOPIC_WEIGHT>
249.95346220

> <PUBCHEM_TOTAL_CHARGE>
0

> <PUBCHEM_HEAVY_ATOM_COUNT>
14

> <PUBCHEM_ATOM_DEF_STEREO_COUNT>
0

> <PUBCHEM_ATOM_UDEF_STEREO_COUNT>
0

> <PUBCHEM_BOND_DEF_STEREO_COUNT>
0

> <PUBCHEM_BOND_UDEF_STEREO_COUNT>
0

> <PUBCHEM_ISOTOPIC_ATOM_COUNT>
0

> <PUBCHEM_COMPONENT_COUNT>
1

> <PUBCHEM_CACTVS_TAUTO_COUNT>
-1

> <PUBCHEM_COORDINATE_TYPE>
1
5
255

$$$$
