9908458
  -OEChem-05122608332D

 70 70  0     0  0  0  0  0  0999 V2000
    2.8660    4.2500    0.0000 O   0  0  0  0  0  0  0  0  0  0  0  0
    7.1962   -0.2500    0.0000 O   0  0  0  0  0  0  0  0  0  0  0  0
    8.0622    1.2500    0.0000 O   0  0  0  0  0  0  0  0  0  0  0  0
    4.5981    5.2500    0.0000 C   0  0  0  0  0  0  0  0  0  0  0  0
    2.8660    2.2500    0.0000 C   0  0  0  0  0  0  0  0  0  0  0  0
    4.5981    4.2500    0.0000 C   0  0  0  0  0  0  0  0  0  0  0  0
    3.7321    2.7500    0.0000 C   0  0  0  0  0  0  0  0  0  0  0  0
    3.7321    3.7500    0.0000 C   0  0  0  0  0  0  0  0  0  0  0  0
    5.4641    2.7500    0.0000 C   0  0  0  0  0  0  0  0  0  0  0  0
    5.4641    3.7500    0.0000 C   0  0  0  0  0  0  0  0  0  0  0  0
    4.5981    2.2500    0.0000 C   0  0  0  0  0  0  0  0  0  0  0  0
    4.5981    6.2500    0.0000 C   0  0  0  0  0  0  0  0  0  0  0  0
    5.5981    5.2500    0.0000 C   0  0  0  0  0  0  0  0  0  0  0  0
    3.5981    5.2500    0.0000 C   0  0  0  0  0  0  0  0  0  0  0  0
    2.0000    1.7500    0.0000 C   0  0  0  0  0  0  0  0  0  0  0  0
    3.3660    1.3840    0.0000 C   0  0  0  0  0  0  0  0  0  0  0  0
    2.3660    3.1160    0.0000 C   0  0  0  0  0  0  0  0  0  0  0  0
    6.3301    2.2500    0.0000 C   0  0  0  0  0  0  0  0  0  0  0  0
    6.3301    1.2500    0.0000 C   0  0  0  0  0  0  0  0  0  0  0  0
    8.9282   -3.2500    0.0000 C   0  0  0  0  0  0  0  0  0  0  0  0
    8.9282   -2.2500    0.0000 C   0  0  0  0  0  0  0  0  0  0  0  0
    9.7942   -3.7500    0.0000 C   0  0  0  0  0  0  0  0  0  0  0  0
    8.0622   -1.7500    0.0000 C   0  0  0  0  0  0  0  0  0  0  0  0
    9.7942   -4.7500    0.0000 C   0  0  0  0  0  0  0  0  0  0  0  0
    7.1962    0.7500    0.0000 C   0  0  0  0  0  0  0  0  0  0  0  0
    8.0622   -0.7500    0.0000 C   0  0  0  0  0  0  0  0  0  0  0  0
   10.6603   -5.2500    0.0000 C   0  0  0  0  0  0  0  0  0  0  0  0
   10.6603   -6.2500    0.0000 C   0  0  0  0  0  0  0  0  0  0  0  0
    6.0010    4.0600    0.0000 H   0  0  0  0  0  0  0  0  0  0  0  0
    4.5981    1.6300    0.0000 H   0  0  0  0  0  0  0  0  0  0  0  0
    5.2181    6.2500    0.0000 H   0  0  0  0  0  0  0  0  0  0  0  0
    4.5981    6.8700    0.0000 H   0  0  0  0  0  0  0  0  0  0  0  0
    3.9781    6.2500    0.0000 H   0  0  0  0  0  0  0  0  0  0  0  0
    5.5981    4.6300    0.0000 H   0  0  0  0  0  0  0  0  0  0  0  0
    6.2181    5.2500    0.0000 H   0  0  0  0  0  0  0  0  0  0  0  0
    5.5981    5.8700    0.0000 H   0  0  0  0  0  0  0  0  0  0  0  0
    3.5981    5.8700    0.0000 H   0  0  0  0  0  0  0  0  0  0  0  0
    2.9781    5.2500    0.0000 H   0  0  0  0  0  0  0  0  0  0  0  0
    3.5981    4.6300    0.0000 H   0  0  0  0  0  0  0  0  0  0  0  0
    1.6900    2.2869    0.0000 H   0  0  0  0  0  0  0  0  0  0  0  0
    1.4631    1.4400    0.0000 H   0  0  0  0  0  0  0  0  0  0  0  0
    2.3100    1.2131    0.0000 H   0  0  0  0  0  0  0  0  0  0  0  0
    2.8291    1.0740    0.0000 H   0  0  0  0  0  0  0  0  0  0  0  0
    3.6760    0.8470    0.0000 H   0  0  0  0  0  0  0  0  0  0  0  0
    3.9030    1.6940    0.0000 H   0  0  0  0  0  0  0  0  0  0  0  0
    2.9030    3.4260    0.0000 H   0  0  0  0  0  0  0  0  0  0  0  0
    2.0560    3.6530    0.0000 H   0  0  0  0  0  0  0  0  0  0  0  0
    1.8291    2.8060    0.0000 H   0  0  0  0  0  0  0  0  0  0  0  0
    6.9407    2.1423    0.0000 H   0  0  0  0  0  0  0  0  0  0  0  0
    6.5422    2.8326    0.0000 H   0  0  0  0  0  0  0  0  0  0  0  0
    5.7196    1.3577    0.0000 H   0  0  0  0  0  0  0  0  0  0  0  0
    6.1181    0.6674    0.0000 H   0  0  0  0  0  0  0  0  0  0  0  0
    8.3176   -3.1423    0.0000 H   0  0  0  0  0  0  0  0  0  0  0  0
    8.7162   -3.8326    0.0000 H   0  0  0  0  0  0  0  0  0  0  0  0
    2.8660    4.8700    0.0000 H   0  0  0  0  0  0  0  0  0  0  0  0
    9.5388   -2.3577    0.0000 H   0  0  0  0  0  0  0  0  0  0  0  0
    9.1403   -1.6674    0.0000 H   0  0  0  0  0  0  0  0  0  0  0  0
   10.4048   -3.8577    0.0000 H   0  0  0  0  0  0  0  0  0  0  0  0
   10.0063   -3.1674    0.0000 H   0  0  0  0  0  0  0  0  0  0  0  0
    7.4516   -1.6423    0.0000 H   0  0  0  0  0  0  0  0  0  0  0  0
    7.8501   -2.3326    0.0000 H   0  0  0  0  0  0  0  0  0  0  0  0
    9.1837   -4.6423    0.0000 H   0  0  0  0  0  0  0  0  0  0  0  0
    9.5822   -5.3326    0.0000 H   0  0  0  0  0  0  0  0  0  0  0  0
    8.6728   -0.8577    0.0000 H   0  0  0  0  0  0  0  0  0  0  0  0
    8.2742   -0.1674    0.0000 H   0  0  0  0  0  0  0  0  0  0  0  0
   11.2708   -5.3577    0.0000 H   0  0  0  0  0  0  0  0  0  0  0  0
   10.8723   -4.6674    0.0000 H   0  0  0  0  0  0  0  0  0  0  0  0
   10.0403   -6.2500    0.0000 H   0  0  0  0  0  0  0  0  0  0  0  0
   10.6603   -6.8700    0.0000 H   0  0  0  0  0  0  0  0  0  0  0  0
   11.2803   -6.2500    0.0000 H   0  0  0  0  0  0  0  0  0  0  0  0
  1  8  1  0  0  0  0
  1 55  1  0  0  0  0
  2 25  1  0  0  0  0
  2 26  1  0  0  0  0
  3 25  2  0  0  0  0
  4  6  1  0  0  0  0
  4 12  1  0  0  0  0
  4 13  1  0  0  0  0
  4 14  1  0  0  0  0
  5  7  1  0  0  0  0
  5 15  1  0  0  0  0
  5 16  1  0  0  0  0
  5 17  1  0  0  0  0
  6  8  2  0  0  0  0
  6 10  1  0  0  0  0
  7  8  1  0  0  0  0
  7 11  2  0  0  0  0
  9 10  2  0  0  0  0
  9 11  1  0  0  0  0
  9 18  1  0  0  0  0
 10 29  1  0  0  0  0
 11 30  1  0  0  0  0
 12 31  1  0  0  0  0
 12 32  1  0  0  0  0
 12 33  1  0  0  0  0
 13 34  1  0  0  0  0
 13 35  1  0  0  0  0
 13 36  1  0  0  0  0
 14 37  1  0  0  0  0
 14 38  1  0  0  0  0
 14 39  1  0  0  0  0
 15 40  1  0  0  0  0
 15 41  1  0  0  0  0
 15 42  1  0  0  0  0
 16 43  1  0  0  0  0
 16 44  1  0  0  0  0
 16 45  1  0  0  0  0
 17 46  1  0  0  0  0
 17 47  1  0  0  0  0
 17 48  1  0  0  0  0
 18 19  1  0  0  0  0
 18 49  1  0  0  0  0
 18 50  1  0  0  0  0
 19 25  1  0  0  0  0
 19 51  1  0  0  0  0
 19 52  1  0  0  0  0
 20 21  1  0  0  0  0
 20 22  1  0  0  0  0
 20 53  1  0  0  0  0
 20 54  1  0  0  0  0
 21 23  1  0  0  0  0
 21 56  1  0  0  0  0
 21 57  1  0  0  0  0
 22 24  1  0  0  0  0
 22 58  1  0  0  0  0
 22 59  1  0  0  0  0
 23 26  1  0  0  0  0
 23 60  1  0  0  0  0
 23 61  1  0  0  0  0
 24 27  1  0  0  0  0
 24 62  1  0  0  0  0
 24 63  1  0  0  0  0
 26 64  1  0  0  0  0
 26 65  1  0  0  0  0
 27 28  1  0  0  0  0
 27 66  1  0  0  0  0
 27 67  1  0  0  0  0
 28 68  1  0  0  0  0
 28 69  1  0  0  0  0
 28 70  1  0  0  0  0
M  END
> <PUBCHEM_COMPOUND_CID>
9908458

> <PUBCHEM_COMPOUND_CANONICALIZED>
1

> <PUBCHEM_CACTVS_COMPLEXITY>
420

> <PUBCHEM_CACTVS_HBOND_ACCEPTOR>
3

> <PUBCHEM_CACTVS_HBOND_DONOR>
1

> <PUBCHEM_CACTVS_ROTATABLE_BOND>
13

> <PUBCHEM_CACTVS_SUBSKEYS>
AAADcfB4MAAAAAAAAAAAAAAAAAAAAAAAAAAwAAAAAAAAAAABAAAAGgAACAAADgSgmAIyDoAABgCIAiDSCAACAAAgIAAAiAEECIgIJjKCERKCcAAkwBEImAeIyOCPoAACAAAIAABAAAQAABAAAAAAAAAAAA==

> <PUBCHEM_IUPAC_OPENEYE_NAME>
octyl 3-(3,5-ditert-butyl-4-hydroxy-phenyl)propanoate

> <PUBCHEM_IUPAC_CAS_NAME>
3-(3,5-ditert-butyl-4-hydroxyphenyl)propanoic acid octyl ester

> <PUBCHEM_IUPAC_NAME_MARKUP>
octyl 3-(3,5-di<I>tert</I>-butyl-4-hydroxyphenyl)propanoate

> <PUBCHEM_IUPAC_NAME>
octyl 3-(3,5-ditert-butyl-4-hydroxyphenyl)propanoate

> <PUBCHEM_IUPAC_SYSTEMATIC_NAME>
octyl 3-(3,5-ditert-butyl-4-oxidanyl-phenyl)propanoate

> <PUBCHEM_IUPAC_TRADITIONAL_NAME>
3-(3,5-ditert-butyl-4-hydroxy-phenyl)propionic acid octyl ester

> <PUBCHEM_IUPAC_INCHI>
InChI=1S/C25H42O3/c1-8-9-10-11-12-13-16-28-22(26)15-14-19-17-20(24(2,3)4)23(27)21(18-19)25(5,6)7/h17-18,27H,8-16H2,1-7H3

> <PUBCHEM_IUPAC_INCHIKEY>
CFXCGWWYIDZIMU-UHFFFAOYSA-N

> <PUBCHEM_XLOGP3_AA>
8.4

> <PUBCHEM_EXACT_MASS>
390.31339520

> <PUBCHEM_MOLECULAR_FORMULA>
C25H42O3

> <PUBCHEM_MOLECULAR_WEIGHT>
390.6

> <PUBCHEM_SMILES>
CCCCCCCCOC(=O)CCC1=CC(=C(C(=C1)C(C)(C)C)O)C(C)(C)C

> <PUBCHEM_CONNECTIVITY_SMILES>
CCCCCCCCOC(=O)CCC1=CC(=C(C(=C1)C(C)(C)C)O)C(C)(C)C

> <PUBCHEM_CACTVS_TPSA>
46.5

> <PUBCHEM_MONOISOTOPIC_WEIGHT>
390.31339520

> <PUBCHEM_TOTAL_CHARGE>
0

> <PUBCHEM_HEAVY_ATOM_COUNT>
28

> <PUBCHEM_ATOM_DEF_STEREO_COUNT>
0

> <PUBCHEM_ATOM_UDEF_STEREO_COUNT>
0

> <PUBCHEM_BOND_DEF_STEREO_COUNT>
0

> <PUBCHEM_BOND_UDEF_STEREO_COUNT>
0

> <PUBCHEM_ISOTOPIC_ATOM_COUNT>
0

> <PUBCHEM_COMPONENT_COUNT>
1

> <PUBCHEM_CACTVS_TAUTO_COUNT>
-1

> <PUBCHEM_COORDINATE_TYPE>
1
5
255

> <PUBCHEM_BONDANNOTATIONS>
6  10  8
6  8  8
7  11  8
7  8  8
9  10  8
9  11  8

$$$$
