9949800
  -OEChem-05122608242D

 57 57  0     0  0  0  0  0  0999 V2000
    2.4803    3.6143    0.0000 O   0  0  0  0  0  0  0  0  0  0  0  0
    4.1587   -3.7393    0.0000 O   0  0  0  0  0  0  0  0  0  0  0  0
    9.6878    1.3910    0.0000 O   0  0  0  0  0  0  0  0  0  0  0  0
    2.5369    2.0994    0.0000 N   0  0  0  0  0  0  0  0  0  0  0  0
    8.3475    2.0994    0.0000 N   0  0  0  0  0  0  0  0  0  0  0  0
    5.4422   -2.9328    0.0000 N   0  0  0  0  0  0  0  0  0  0  0  0
    5.9422    3.7393    0.0000 C   0  0  0  0  0  0  0  0  0  0  0  0
    2.3194   -0.8036    0.0000 C   0  0  0  0  0  0  0  0  0  0  0  0
    8.0651   -1.6697    0.0000 C   0  0  0  0  0  0  0  0  0  0  0  0
    6.8978    3.4445    0.0000 C   0  0  0  0  0  0  0  0  0  0  0  0
    2.0969    0.1713    0.0000 C   0  0  0  0  0  0  0  0  0  0  0  0
    7.3320   -2.3498    0.0000 C   0  0  0  0  0  0  0  0  0  0  0  0
    4.9422    3.7393    0.0000 C   0  0  0  0  0  0  0  0  0  0  0  0
    2.8194   -1.6697    0.0000 C   0  0  0  0  0  0  0  0  0  0  0  0
    8.5651   -0.8036    0.0000 C   0  0  0  0  0  0  0  0  0  0  0  0
    2.1716    1.1685    0.0000 C   0  0  0  0  0  0  0  0  0  0  0  0
    7.7241    2.8812    0.0000 C   0  0  0  0  0  0  0  0  0  0  0  0
    6.4311   -2.7837    0.0000 C   0  0  0  0  0  0  0  0  0  0  0  0
    3.9867    3.4445    0.0000 C   0  0  0  0  0  0  0  0  0  0  0  0
    3.5524   -2.3498    0.0000 C   0  0  0  0  0  0  0  0  0  0  0  0
    8.7876    0.1713    0.0000 C   0  0  0  0  0  0  0  0  0  0  0  0
    3.1604    2.8812    0.0000 C   0  0  0  0  0  0  0  0  0  0  0  0
    4.4534   -2.7837    0.0000 C   0  0  0  0  0  0  0  0  0  0  0  0
    8.7129    1.1685    0.0000 C   0  0  0  0  0  0  0  0  0  0  0  0
    6.3525    4.2042    0.0000 H   0  0  0  0  0  0  0  0  0  0  0  0
    5.8498    3.1262    0.0000 H   0  0  0  0  0  0  0  0  0  0  0  0
    1.7117   -0.6808    0.0000 H   0  0  0  0  0  0  0  0  0  0  0  0
    2.8965   -0.5771    0.0000 H   0  0  0  0  0  0  0  0  0  0  0  0
    8.2626   -2.2574    0.0000 H   0  0  0  0  0  0  0  0  0  0  0  0
    7.5804   -1.2831    0.0000 H   0  0  0  0  0  0  0  0  0  0  0  0
    7.4269    3.7678    0.0000 H   0  0  0  0  0  0  0  0  0  0  0  0
    6.6288    2.8859    0.0000 H   0  0  0  0  0  0  0  0  0  0  0  0
    2.7151    0.2176    0.0000 H   0  0  0  0  0  0  0  0  0  0  0  0
    1.5524    0.4678    0.0000 H   0  0  0  0  0  0  0  0  0  0  0  0
    7.3475   -2.9696    0.0000 H   0  0  0  0  0  0  0  0  0  0  0  0
    6.9828   -1.8376    0.0000 H   0  0  0  0  0  0  0  0  0  0  0  0
    5.1972    4.3044    0.0000 H   0  0  0  0  0  0  0  0  0  0  0  0
    5.0346    3.1262    0.0000 H   0  0  0  0  0  0  0  0  0  0  0  0
    2.2025   -1.7314    0.0000 H   0  0  0  0  0  0  0  0  0  0  0  0
    3.3041   -1.2831    0.0000 H   0  0  0  0  0  0  0  0  0  0  0  0
    8.9270   -1.3070    0.0000 H   0  0  0  0  0  0  0  0  0  0  0  0
    7.9880   -0.5771    0.0000 H   0  0  0  0  0  0  0  0  0  0  0  0
    1.7387    1.6123    0.0000 H   0  0  0  0  0  0  0  0  0  0  0  0
    2.7761    1.0305    0.0000 H   0  0  0  0  0  0  0  0  0  0  0  0
    8.3249    3.0342    0.0000 H   0  0  0  0  0  0  0  0  0  0  0  0
    7.3023    2.4267    0.0000 H   0  0  0  0  0  0  0  0  0  0  0  0
    6.2632   -3.3805    0.0000 H   0  0  0  0  0  0  0  0  0  0  0  0
    6.2483   -2.1913    0.0000 H   0  0  0  0  0  0  0  0  0  0  0  0
    4.0638    4.0597    0.0000 H   0  0  0  0  0  0  0  0  0  0  0  0
    4.2557    2.8859    0.0000 H   0  0  0  0  0  0  0  0  0  0  0  0
    2.9811   -2.5907    0.0000 H   0  0  0  0  0  0  0  0  0  0  0  0
    3.9017   -1.8376    0.0000 H   0  0  0  0  0  0  0  0  0  0  0  0
    9.2818   -0.2031    0.0000 H   0  0  0  0  0  0  0  0  0  0  0  0
    8.1693    0.2176    0.0000 H   0  0  0  0  0  0  0  0  0  0  0  0
    2.0000    2.4094    0.0000 H   0  0  0  0  0  0  0  0  0  0  0  0
    8.8845    2.4094    0.0000 H   0  0  0  0  0  0  0  0  0  0  0  0
    5.4422   -3.5528    0.0000 H   0  0  0  0  0  0  0  0  0  0  0  0
  1 22  2  0  0  0  0
  2 23  2  0  0  0  0
  3 24  2  0  0  0  0
  4 16  1  0  0  0  0
  4 22  1  0  0  0  0
  4 55  1  0  0  0  0
  5 17  1  0  0  0  0
  5 24  1  0  0  0  0
  5 56  1  0  0  0  0
  6 18  1  0  0  0  0
  6 23  1  0  0  0  0
  6 57  1  0  0  0  0
  7 10  1  0  0  0  0
  7 13  1  0  0  0  0
  7 25  1  0  0  0  0
  7 26  1  0  0  0  0
  8 11  1  0  0  0  0
  8 14  1  0  0  0  0
  8 27  1  0  0  0  0
  8 28  1  0  0  0  0
  9 12  1  0  0  0  0
  9 15  1  0  0  0  0
  9 29  1  0  0  0  0
  9 30  1  0  0  0  0
 10 17  1  0  0  0  0
 10 31  1  0  0  0  0
 10 32  1  0  0  0  0
 11 16  1  0  0  0  0
 11 33  1  0  0  0  0
 11 34  1  0  0  0  0
 12 18  1  0  0  0  0
 12 35  1  0  0  0  0
 12 36  1  0  0  0  0
 13 19  1  0  0  0  0
 13 37  1  0  0  0  0
 13 38  1  0  0  0  0
 14 20  1  0  0  0  0
 14 39  1  0  0  0  0
 14 40  1  0  0  0  0
 15 21  1  0  0  0  0
 15 41  1  0  0  0  0
 15 42  1  0  0  0  0
 16 43  1  0  0  0  0
 16 44  1  0  0  0  0
 17 45  1  0  0  0  0
 17 46  1  0  0  0  0
 18 47  1  0  0  0  0
 18 48  1  0  0  0  0
 19 22  1  0  0  0  0
 19 49  1  0  0  0  0
 19 50  1  0  0  0  0
 20 23  1  0  0  0  0
 20 51  1  0  0  0  0
 20 52  1  0  0  0  0
 21 24  1  0  0  0  0
 21 53  1  0  0  0  0
 21 54  1  0  0  0  0
M  END
> <PUBCHEM_COMPOUND_CID>
9949800

> <PUBCHEM_COMPOUND_CANONICALIZED>
1

> <PUBCHEM_CACTVS_COMPLEXITY>
329

> <PUBCHEM_CACTVS_HBOND_ACCEPTOR>
3

> <PUBCHEM_CACTVS_HBOND_DONOR>
3

> <PUBCHEM_CACTVS_ROTATABLE_BOND>
0

> <PUBCHEM_CACTVS_SUBSKEYS>
AAADcfB7MAAAAAAAAAAAAAAAAAAAAAAAAAAAAAAAAAAAAAAAAAAAHgAQAAAACADBgAQAAALAAAAIAAEQEAAAAAAAAAAAAIEIAAAAABIAgAAEAAAAFgCAAAEYCAAAAAAAAAAAAAAAAAAAAAAAAAAAAAAAAA==

> <PUBCHEM_IUPAC_OPENEYE_NAME>
1,8,15-triazacyclohenicosane-2,9,16-trione

> <PUBCHEM_IUPAC_CAS_NAME>
1,8,15-triazacycloheneicosane-2,9,16-trione

> <PUBCHEM_IUPAC_NAME_MARKUP>
1,8,15-triazacyclohenicosane-2,9,16-trione

> <PUBCHEM_IUPAC_NAME>
1,8,15-triazacyclohenicosane-2,9,16-trione

> <PUBCHEM_IUPAC_SYSTEMATIC_NAME>
1,8,15-triazacyclohenicosane-2,9,16-trione

> <PUBCHEM_IUPAC_TRADITIONAL_NAME>
1,8,15-triazacycloheneicosane-2,9,16-trione

> <PUBCHEM_IUPAC_INCHI>
InChI=1S/C18H33N3O3/c22-16-10-4-1-7-13-19-17(23)11-5-2-9-15-21-18(24)12-6-3-8-14-20-16/h1-15H2,(H,19,23)(H,20,22)(H,21,24)

> <PUBCHEM_IUPAC_INCHIKEY>
HJBDVFFKADBHHV-UHFFFAOYSA-N

> <PUBCHEM_XLOGP3_AA>
1

> <PUBCHEM_EXACT_MASS>
339.25219192

> <PUBCHEM_MOLECULAR_FORMULA>
C18H33N3O3

> <PUBCHEM_MOLECULAR_WEIGHT>
339.5

> <PUBCHEM_SMILES>
C1CCC(=O)NCCCCCC(=O)NCCCCCC(=O)NCC1

> <PUBCHEM_CONNECTIVITY_SMILES>
C1CCC(=O)NCCCCCC(=O)NCCCCCC(=O)NCC1

> <PUBCHEM_CACTVS_TPSA>
87.3

> <PUBCHEM_MONOISOTOPIC_WEIGHT>
339.25219192

> <PUBCHEM_TOTAL_CHARGE>
0

> <PUBCHEM_HEAVY_ATOM_COUNT>
24

> <PUBCHEM_ATOM_DEF_STEREO_COUNT>
0

> <PUBCHEM_ATOM_UDEF_STEREO_COUNT>
0

> <PUBCHEM_BOND_DEF_STEREO_COUNT>
0

> <PUBCHEM_BOND_UDEF_STEREO_COUNT>
0

> <PUBCHEM_ISOTOPIC_ATOM_COUNT>
0

> <PUBCHEM_COMPONENT_COUNT>
1

> <PUBCHEM_CACTVS_TAUTO_COUNT>
-1

> <PUBCHEM_COORDINATE_TYPE>
1
5
255

$$$$
